Compound 1
Actelion Java MolfileCreator 2.0

  0  0  0  0  0  0              0 V3000
M  V30 BEGIN CTAB
M  V30 COUNTS 36 39 0 0 0
M  V30 BEGIN ATOM
M  V30 1 O 0.0 0.0 0.0 0
M  V30 2 C -0.0381 1.5379 0.0 0
M  V30 3 O 1.2202 2.3133 0.0 0
M  V30 4 O -1.3727 2.3133 0.0 0
M  V30 5 C 2.4785 1.6142 0.0 0
M  V30 6 C -1.4108 3.8385 0.0 0 CFG=2
M  V30 7 C 3.7369 2.3895 0.0 0
M  V30 8 C -1.7667 2.415 0.0 0
M  V30 9 C -0.1525 4.6012 0.0 0 CFG=1
M  V30 10 C -2.7454 4.6139 0.0 0 CFG=1
M  V30 11 C 5.1223 1.9701 0.0 0 CFG=1
M  V30 12 O -2.237 1.0041 0.0 0
M  V30 13 N -3.292 2.3133 0.0 0
M  V30 14 C 1.1058 3.9148 0.0 0
M  V30 15 C -0.1779 6.1264 0.0 0 CFG=2
M  V30 16 C -2.7709 6.1392 0.0 0 CFG=1
M  V30 17 C -3.9021 3.6479 0.0 0 CFG=1
M  V30 18 O 6.7238 1.7667 0.0 0
M  V30 19 C 5.9739 3.2157 0.0 0
M  V30 20 C 4.7537 0.5592 0.0 0
M  V30 21 C 2.3641 4.6901 0.0 0
M  V30 22 O 1.0803 6.8891 0.0 0
M  V30 23 C -1.5125 6.9018 0.0 0
M  V30 24 C -4.1055 6.9145 0.0 0
M  V30 25 C -5.4019 4.0038 0.0 0
M  V30 26 O 7.4229 3.2539 0.0 0
M  V30 27 C 5.046 4.4614 0.0 0 CFG=2
M  V30 28 C 3.6225 3.9911 0.0 0
M  V30 29 C -1.5379 8.4271 0.0 0
M  V30 30 C -6.4569 2.9361 0.0 0
M  V30 31 C 5.4655 5.9231 0.0 0
M  V30 32 C -7.9568 3.292 0.0 0
M  V30 33 C -6.0502 1.5506 0.0 0
M  V30 34 C -9.0117 2.2243 0.0 0
M  V30 35 C -7.1052 0.483 0.0 0
M  V30 36 C -8.605 0.8388 0.0 0
M  V30 END ATOM
M  V30 BEGIN BOND
M  V30 1 2 1 2
M  V30 2 1 2 3
M  V30 3 1 2 4
M  V30 4 1 3 5
M  V30 5 1 6 4 CFG=1
M  V30 6 2 5 7
M  V30 7 1 6 8
M  V30 8 1 6 9
M  V30 9 1 6 10
M  V30 10 1 7 11
M  V30 11 2 8 12
M  V30 12 1 8 13
M  V30 13 1 9 14 CFG=3
M  V30 14 1 9 15
M  V30 15 1 10 16 CFG=3
M  V30 16 1 10 17
M  V30 17 1 11 18 CFG=3
M  V30 18 1 11 19
M  V30 19 1 11 20
M  V30 20 2 14 21
M  V30 21 1 15 22 CFG=1
M  V30 22 1 15 23
M  V30 23 1 16 24 CFG=3
M  V30 24 1 17 25 CFG=1
M  V30 25 2 19 26
M  V30 26 1 19 27
M  V30 27 1 21 28
M  V30 28 2 23 29
M  V30 29 1 25 30
M  V30 30 1 27 31 CFG=3
M  V30 31 2 30 32
M  V30 32 1 30 33
M  V30 33 1 32 34
M  V30 34 2 33 35
M  V30 35 2 34 36
M  V30 36 1 13 17
M  V30 37 1 16 23
M  V30 38 1 27 28
M  V30 39 1 35 36
M  V30 END BOND
M  V30 BEGIN COLLECTION
M  V30 MDLV30/STEABS ATOMS=(8 6 9 10 11 15 16 17 27)
M  V30 END COLLECTION
M  V30 END CTAB
M  END
>  <Compound>
Δ-6-12 Cytochalasin E

>  <Origin>
Dematophora necatrix

>  <Reference>
Pourmoghaddam, M.J., Ekiz, G., Lambert, C. et al. Studies on the secondary metabolism of Rosellinia and Dematophora strains (Xylariaceae) from Iran. Mycol Progress 21, 65 (2022). https://doi.org/10.1007/s11557-022-01816-x

>  <Actin Disruption Activity (1h Treatment)>
++

>  <Reversibilty>
+/-

>  <Box ID>
3C0129

>  <Quantity>
available

>  <Cytotoxicity in L929 mouse fibroblasts [µM]>
0.17

>  <Synonyms>
compound 7

>  <Subclass>
Cytochalasin

>  <Molecular Formula>
C28H33NO7

>  <Total Molweight>
495.57

>  <Smiles>
C[C@@H]([C@@H]([C@H](Cc1ccccc1)NC1=O)[C@@]1([C@H]([C@@H]1O)/C=C/C[C@H](C)C([C@@](C)(/C=C/O2)O)=O)OC2=O)C1=C

>  <Amino Acid>
Phenylalanine

>  <Cytotoxicity in L929 mouse Fibroblasts [µg/mL]>
0.084 

>  <Cytotoxicity in KB3.1>


>  <Anti-Biofilm>
not tested

$$$$
Compound 2
Actelion Java MolfileCreator 2.0

  0  0  0  0  0  0              0 V3000
M  V30 BEGIN CTAB
M  V30 COUNTS 37 42 0 0 0
M  V30 BEGIN ATOM
M  V30 1 O 0.0 0.0 0.0 0
M  V30 2 C -1.0171 1.1603 0.0 0
M  V30 3 C -2.7218 0.8165 0.0 0 CFG=2
M  V30 4 C -0.4727 2.7361 0.0 0 CFG=2
M  V30 5 C -4.0398 1.5758 0.0 0 CFG=2
M  V30 6 C -2.7648 -0.616 0.0 0
M  V30 7 C -1.5901 3.8249 0.0 0
M  V30 8 C 1.189 2.7934 0.0 0
M  V30 9 O -4.0828 0.2435 0.0 0
M  V30 10 C -5.3577 0.9025 0.0 0 CFG=1
M  V30 11 C -2.8364 3.8535 0.0 0
M  V30 12 C -6.3462 1.3609 0.0 0 CFG=1
M  V30 13 C -4.1544 3.1802 0.0 0
M  V30 14 O -6.3892 -0.3008 0.0 0
M  V30 15 C -6.7187 3.1946 0.0 0 CFG=1
M  V30 16 C -5.4723 3.9395 0.0 0 CFG=2
M  V30 17 C -5.4437 -1.2463 0.0 0
M  V30 18 C -7.4922 1.3895 0.0 0
M  V30 19 C -8.0366 3.9538 0.0 0 CFG=1
M  V30 20 C -5.5153 5.458 0.0 0 CFG=2
M  V30 21 O -4.1114 -1.0314 0.0 0
M  V30 22 C -6.16 -2.4067 0.0 0
M  V30 23 O -7.5352 -0.2292 0.0 0
M  V30 24 N -9.1683 1.805 0.0 0
M  V30 25 C -8.0796 5.4723 0.0 0 CFG=1
M  V30 26 C -9.3546 3.2805 0.0 0 CFG=1
M  V30 27 O -5.501 6.6041 0.0 0
M  V30 28 C -6.8333 6.2173 0.0 0 CFG=1
M  V30 29 C -9.3976 6.2316 0.0 0
M  V30 30 C -10.6725 4.0398 0.0 0
M  V30 31 C -6.8762 7.7358 0.0 0
M  V30 32 C -11.9905 3.3665 0.0 0
M  V30 33 C -13.3085 4.1257 0.0 0
M  V30 34 C -12.0335 1.9339 0.0 0
M  V30 35 C -14.6264 3.4524 0.0 0
M  V30 36 C -13.3514 1.2606 0.0 0
M  V30 37 C -14.6694 2.0199 0.0 0
M  V30 END ATOM
M  V30 BEGIN BOND
M  V30 1 2 1 2
M  V30 2 1 2 3
M  V30 3 1 2 4
M  V30 4 1 3 5
M  V30 5 1 3 6 CFG=1
M  V30 6 1 4 7
M  V30 7 1 4 8 CFG=3
M  V30 8 1 5 9 CFG=1
M  V30 9 1 5 10
M  V30 10 1 7 11
M  V30 11 1 10 12
M  V30 12 2 11 13
M  V30 13 1 12 14 CFG=1
M  V30 14 1 12 15
M  V30 15 1 16 13 CFG=3
M  V30 16 1 14 17
M  V30 17 1 15 18 CFG=3
M  V30 18 1 15 19
M  V30 19 1 16 20
M  V30 20 2 17 21
M  V30 21 1 17 22
M  V30 22 2 18 23
M  V30 23 1 18 24
M  V30 24 1 19 25 CFG=3
M  V30 25 1 19 26
M  V30 26 1 20 27 CFG=1
M  V30 27 1 20 28
M  V30 28 1 25 29 CFG=3
M  V30 29 1 26 30 CFG=1
M  V30 30 1 28 31 CFG=3
M  V30 31 1 30 32
M  V30 32 2 32 33
M  V30 33 1 32 34
M  V30 34 1 33 35
M  V30 35 2 34 36
M  V30 36 2 35 37
M  V30 37 1 10 9 CFG=1
M  V30 38 1 15 16
M  V30 39 1 24 26
M  V30 40 1 25 28
M  V30 41 1 27 28
M  V30 42 1 36 37
M  V30 END BOND
M  V30 BEGIN COLLECTION
M  V30 MDLV30/STEABS ATOMS=(12 3 4 5 10 12 15 16 19 20 25 26 28)
M  V30 END COLLECTION
M  V30 END CTAB
M  END
>  <Compound>
18-Deoxy-19,20-Epoxycytochalasin Q

>  <Origin>
Rosellinia rickii

>  <Reference>
Kretz, R., Wendt, L., Wongkanoun, S., Luangsa-ard, J., Surup, F., Helaly, S., … Stradal, T. (2019). The Effect of Cytochalasans on the Actin Cytoskeleton of Eukaryotic Cells and Preliminary Structure–Activity Relationships. Biomolecules, 9(2), 73. doi:10.

>  <Actin Disruption Activity (1h Treatment)>
++

>  <Reversibilty>
+

>  <Box ID>
not available

>  <Quantity>
not available

>  <Cytotoxicity in L929 mouse fibroblasts [µM]>
not tested

>  <Synonyms>
compound 21

>  <Subclass>
Cytochalasin

>  <Molecular Formula>
C30H37NO6

>  <Total Molweight>
507.625

>  <Smiles>
C[C@@H]([C@@H]([C@H](Cc1ccccc1)N1)[C@@]2([C@@H]([C@@H]3O[C@H]3[C@@H]3C)OC(C)=O)C1=O)[C@@]1(C)O[C@H]1[C@@H]2/C=C/C[C@H](C)C3=O

>  <Amino Acid>
Phenylalanine

>  <Cytotoxicity in L929 mouse Fibroblasts [µg/mL]>
not tested

>  <Cytotoxicity in KB3.1>


>  <Anti-Biofilm>
-

$$$$
Compound 3
Actelion Java MolfileCreator 2.0

  0  0  0  0  0  0              0 V3000
M  V30 BEGIN CTAB
M  V30 COUNTS 34 38 0 0 0
M  V30 BEGIN ATOM
M  V30 1 O 0.0 0.0 0.0 0
M  V30 2 C -0.0151 1.504 0.0 0
M  V30 3 O -1.3217 2.2788 0.0 0
M  V30 4 C 1.2609 2.2788 0.0 0
M  V30 5 C -1.3369 3.7829 0.0 0 CFG=2
M  V30 6 C 2.294 1.2609 0.0 0
M  V30 7 C -2.3244 1.8686 0.0 0
M  V30 8 C -0.0607 4.5273 0.0 0 CFG=1
M  V30 9 C -2.6283 4.5425 0.0 0 CFG=1
M  V30 10 C 3.7525 1.2761 0.0 0
M  V30 11 O -2.3396 0.6988 0.0 0
M  V30 12 N -3.631 2.294 0.0 0
M  V30 13 C 1.2002 3.7981 0.0 0
M  V30 14 C -0.0607 6.0314 0.0 0
M  V30 15 C -2.6283 6.0466 0.0 0
M  V30 16 C -3.7525 3.5702 0.0 0 CFG=1
M  V30 17 C 4.7704 2.3244 0.0 0
M  V30 18 C 4.2995 -0.0607 0.0 0
M  V30 19 C 2.2485 4.8464 0.0 0
M  V30 20 O 0.1975 7.7178 0.0 0
M  V30 21 C -1.3673 6.8062 0.0 0
M  V30 22 C -3.9348 6.8214 0.0 0
M  V30 23 C -5.2262 3.9045 0.0 0
M  V30 24 O 6.1074 1.7775 0.0 0
M  V30 25 C 4.7552 3.8133 0.0 0
M  V30 26 C 3.7069 4.8616 0.0 0
M  V30 27 C -1.3673 8.3103 0.0 0
M  V30 28 C -6.2441 2.8258 0.0 0
M  V30 29 C 6.0922 4.3906 0.0 0
M  V30 30 C -7.7178 3.16 0.0 0
M  V30 31 C -5.8035 1.4281 0.0 0
M  V30 32 C -8.7357 2.0813 0.0 0
M  V30 33 C -6.8214 0.3494 0.0 0
M  V30 34 C -8.2951 0.6836 0.0 0
M  V30 END ATOM
M  V30 BEGIN BOND
M  V30 1 2 1 2
M  V30 2 1 2 3
M  V30 3 1 2 4
M  V30 4 1 5 3 CFG=1
M  V30 5 2 4 6
M  V30 6 1 5 7
M  V30 7 1 5 8
M  V30 8 1 5 9
M  V30 9 1 6 10
M  V30 10 2 7 11
M  V30 11 1 7 12
M  V30 12 1 8 13 CFG=3
M  V30 13 1 8 14
M  V30 14 1 9 15 CFG=3
M  V30 15 1 9 16
M  V30 16 1 10 17
M  V30 17 1 10 18
M  V30 18 2 13 19
M  V30 19 1 14 20
M  V30 20 1 14 21
M  V30 21 1 15 22
M  V30 22 1 16 23 CFG=1
M  V30 23 1 17 24
M  V30 24 1 17 25
M  V30 25 1 19 26
M  V30 26 1 21 27
M  V30 27 1 23 28
M  V30 28 1 25 29
M  V30 29 2 28 30
M  V30 30 1 28 31
M  V30 31 1 30 32
M  V30 32 2 31 33
M  V30 33 2 32 34
M  V30 34 1 12 16
M  V30 35 1 15 21
M  V30 36 1 20 21
M  V30 37 1 25 26
M  V30 38 1 33 34
M  V30 END BOND
M  V30 BEGIN COLLECTION
M  V30 MDLV30/STEABS ATOMS=(4 5 8 9 16)
M  V30 END COLLECTION
M  V30 END CTAB
M  END
>  <Compound>
18-dehydroxy-cytochalasin E

>  <Origin>
Nemania diffusa

>  <Reference>
Demir, Ö.; Schmidt, K.; Schulz, B.; Stradal, T.E.B.; Surup, F. Cytochalasins from the Ash Endophytic Fungus Nemania diffusa DSM 116299. Molecules 2025, 30, 957. https://doi.org/10.3390/molecules30040957

>  <Actin Disruption Activity (1h Treatment)>
++

>  <Reversibilty>
-

>  <Box ID>
3C0115

>  <Quantity>
1.16 mg

>  <Cytotoxicity in L929 mouse fibroblasts [µM]>
14

>  <Synonyms>
22-oxa-(12)-cytochalasin 1
compound 2

>  <Subclass>
Cytochalasin

>  <Molecular Formula>
C28H35NO5

>  <Total Molweight>
465.588

>  <Smiles>
CC([C@@H]([C@H](Cc1ccccc1)NC1=O)[C@@]11OC(/C=C/C2C)=O)C3(C)OC3[C@@H]1/C=C/CC(C)C2O

>  <Amino Acid>
Phenylalanine

>  <Cytotoxicity in L929 mouse Fibroblasts [µg/mL]>
6.5

>  <Cytotoxicity in KB3.1>


>  <Anti-Biofilm>
not tested

$$$$
Compound 4
Actelion Java MolfileCreator 2.0

  0  0  0  0  0  0              0 V3000
M  V30 BEGIN CTAB
M  V30 COUNTS 38 42 0 0 0
M  V30 BEGIN ATOM
M  V30 1 O 0.0 0.0 0.0 0
M  V30 2 C -0.9832 1.2167 0.0 0
M  V30 3 C -2.4827 0.9217 0.0 0 CFG=2
M  V30 4 C -0.381 2.6056 0.0 0 CFG=2
M  V30 5 O -1.6961 -0.3072 0.0 0
M  V30 6 C -3.6994 1.905 0.0 0 CFG=2
M  V30 7 C -3.3799 -0.172 0.0 0
M  V30 8 C -1.0569 3.9944 0.0 0
M  V30 9 C 1.0815 2.6424 0.0 0
M  V30 10 O -3.8838 0.5776 0.0 0
M  V30 11 C -5.0391 1.2044 0.0 0 CFG=1
M  V30 12 C -2.5564 4.3508 0.0 0
M  V30 13 C -6.3788 1.9787 0.0 0 CFG=1
M  V30 14 C -3.7732 3.4413 0.0 0
M  V30 15 O -6.2313 0.4301 0.0 0
M  V30 16 C -6.4157 3.5151 0.0 0 CFG=1
M  V30 17 C -5.1129 4.2156 0.0 0 CFG=2
M  V30 18 C -7.4727 -0.4424 0.0 0
M  V30 19 C -6.7598 2.0771 0.0 0
M  V30 20 C -7.7553 4.2894 0.0 0 CFG=1
M  V30 21 C -5.1497 5.752 0.0 0 CFG=2
M  V30 22 O -8.8861 0.172 0.0 0
M  V30 23 C -7.3375 -1.8927 0.0 0
M  V30 24 O -7.2268 0.9586 0.0 0
M  V30 25 N -8.2961 1.9542 0.0 0
M  V30 26 C -7.7922 5.8257 0.0 0
M  V30 27 C -8.9107 3.3061 0.0 0 CFG=1
M  V30 28 O -3.8838 6.5263 0.0 0
M  V30 29 C -6.4894 6.5263 0.0 0
M  V30 30 C -9.1319 6.6 0.0 0
M  V30 31 C -10.4224 3.6503 0.0 0
M  V30 32 C -6.5263 8.0626 0.0 0
M  V30 33 C -11.4671 2.5564 0.0 0
M  V30 34 C -12.9789 2.9005 0.0 0
M  V30 35 C -11.0492 1.1676 0.0 0
M  V30 36 C -14.0236 1.8067 0.0 0
M  V30 37 C -12.0939 0.0737 0.0 0
M  V30 38 C -13.6057 0.4178 0.0 0
M  V30 END ATOM
M  V30 BEGIN BOND
M  V30 1 2 1 2
M  V30 2 1 2 3
M  V30 3 1 2 4
M  V30 4 1 3 5 CFG=3
M  V30 5 1 3 6
M  V30 6 1 3 7
M  V30 7 1 4 8
M  V30 8 1 4 9 CFG=3
M  V30 9 1 6 10 CFG=1
M  V30 10 1 6 11
M  V30 11 1 8 12
M  V30 12 1 11 13
M  V30 13 2 12 14
M  V30 14 1 13 15 CFG=1
M  V30 15 1 13 16
M  V30 16 1 17 14 CFG=3
M  V30 17 1 15 18
M  V30 18 1 16 19 CFG=3
M  V30 19 1 16 20
M  V30 20 1 17 21
M  V30 21 2 18 22
M  V30 22 1 18 23
M  V30 23 2 19 24
M  V30 24 1 19 25
M  V30 25 1 20 26 CFG=3
M  V30 26 1 20 27
M  V30 27 1 21 28 CFG=1
M  V30 28 1 21 29
M  V30 29 1 26 30
M  V30 30 1 27 31 CFG=1
M  V30 31 1 29 32
M  V30 32 1 31 33
M  V30 33 2 33 34
M  V30 34 1 33 35
M  V30 35 1 34 36
M  V30 36 2 35 37
M  V30 37 2 36 38
M  V30 38 1 11 10 CFG=1
M  V30 39 1 16 17
M  V30 40 1 25 27
M  V30 41 2 26 29
M  V30 42 1 37 38
M  V30 END BOND
M  V30 BEGIN COLLECTION
M  V30 MDLV30/STEABS ATOMS=(10 3 4 6 11 13 16 17 20 21 27)
M  V30 END COLLECTION
M  V30 END CTAB
M  END
>  <Compound>
19,20-Epoxycytochalasin C

>  <Origin>
Rosellinia rickii
Xylaria karyophthora

>  <Reference>
Yuyama, K.T.; Wendt, L.; Surup, F.; Kretz, R.; Chepkirui, C.; Wittstein, K.; Boonlarppradab, C.; Wongkanoun, S.; Luangsa-ard, J.J.; Stadler, M.; et al. Cytochalasans act as inhibitors of biofilm formation of Staphylococcus aureus. Biomolecules 2015, 8, 4.
Lambert C, Shao L, Zeng H, Surup F, Saetang P, Aime MC, Husbands DR, Rottner K, Stradal TEB, Stadler M. Cytochalasans produced by Xylaria karyophthora and their biological activities. Mycologia. 2023 May-Jun;115(3):277-287. doi: 10.1080/00275514.2023.2188868. Epub 2023 Apr 5. PMID: 37017575.

>  <Actin Disruption Activity (1h Treatment)>
++

>  <Reversibilty>
+

>  <Box ID>
2C0092

>  <Quantity>
available

>  <Cytotoxicity in L929 mouse fibroblasts [µM]>
0.4

>  <Synonyms>
EpoxyCyto C
compound 15
compound 5

>  <Subclass>
Cytochalasin

>  <Molecular Formula>
C30H37NO7

>  <Total Molweight>
523.624

>  <Smiles>
C[C@@H](C/C=C/C([C@@H](C(C)=C(C)C1[C@H](Cc2ccccc2)N2)O)[C@]1([C@@H]([C@@H]1O[C@H]1[C@@]1(C)O)OC(C)=O)C2=O)C1=O

>  <Amino Acid>
Phenylalanine

>  <Cytotoxicity in L929 mouse Fibroblasts [µg/mL]>
0.23

>  <Cytotoxicity in KB3.1>


>  <Anti-Biofilm>
+

$$$$
Compound 5
Actelion Java MolfileCreator 2.0

  0  0  0  0  0  0              0 V3000
M  V30 BEGIN CTAB
M  V30 COUNTS 38 42 0 0 0
M  V30 BEGIN ATOM
M  V30 1 O 0.0 0.0 0.0 0
M  V30 2 C -1.007 1.1488 0.0 0
M  V30 3 C -2.6948 0.8226 0.0 0 CFG=2
M  V30 4 C -0.4822 2.709 0.0 0 CFG=2
M  V30 5 O -1.4183 -0.7659 0.0 0
M  V30 6 C -3.9997 1.5885 0.0 0 CFG=2
M  V30 7 C -2.7516 -0.5673 0.0 0
M  V30 8 C -1.5885 3.787 0.0 0
M  V30 9 C 1.1346 2.7799 0.0 0
M  V30 10 O -4.0565 0.2978 0.0 0
M  V30 11 C -5.3046 0.9361 0.0 0 CFG=1
M  V30 12 C -2.8225 3.8295 0.0 0
M  V30 13 C -6.2833 1.4041 0.0 0 CFG=1
M  V30 14 C -4.1274 3.1771 0.0 0
M  V30 15 O -6.34 -0.2127 0.0 0
M  V30 16 C -6.6662 3.2196 0.0 0 CFG=1
M  V30 17 C -5.4323 3.943 0.0 0 CFG=2
M  V30 18 C -5.4323 -1.1205 0.0 0
M  V30 19 C -7.4463 1.4609 0.0 0
M  V30 20 C -7.9711 3.9855 0.0 0 CFG=1
M  V30 21 C -5.489 5.4464 0.0 0 CFG=2
M  V30 22 O -4.1416 -0.8935 0.0 0
M  V30 23 C -6.1556 -2.241 0.0 0
M  V30 24 O -7.5031 -0.1134 0.0 0
M  V30 25 N -9.1058 1.8864 0.0 0
M  V30 26 C -8.0279 5.489 0.0 0 CFG=1
M  V30 27 C -9.276 3.3331 0.0 0 CFG=1
M  V30 28 O -4.2976 6.2124 0.0 0
M  V30 29 C -6.7939 6.2124 0.0 0
M  V30 30 C -9.3327 6.2549 0.0 0
M  V30 31 C -10.5809 4.099 0.0 0
M  V30 32 C -6.8506 7.7158 0.0 0
M  V30 33 C -11.8858 3.4466 0.0 0
M  V30 34 C -13.1907 4.2125 0.0 0
M  V30 35 C -11.9425 2.0566 0.0 0
M  V30 36 C -14.4956 3.56 0.0 0
M  V30 37 C -13.2474 1.4041 0.0 0
M  V30 38 C -14.5523 2.17 0.0 0
M  V30 END ATOM
M  V30 BEGIN BOND
M  V30 1 2 1 2
M  V30 2 1 2 3
M  V30 3 1 2 4
M  V30 4 1 3 5 CFG=3
M  V30 5 1 3 6
M  V30 6 1 3 7
M  V30 7 1 4 8
M  V30 8 1 4 9 CFG=3
M  V30 9 1 6 10 CFG=1
M  V30 10 1 6 11
M  V30 11 1 8 12
M  V30 12 1 11 13
M  V30 13 2 12 14
M  V30 14 1 13 15 CFG=1
M  V30 15 1 13 16
M  V30 16 1 17 14 CFG=3
M  V30 17 1 15 18
M  V30 18 1 16 19 CFG=3
M  V30 19 1 16 20
M  V30 20 1 17 21
M  V30 21 2 18 22
M  V30 22 1 18 23
M  V30 23 2 19 24
M  V30 24 1 19 25
M  V30 25 1 20 26 CFG=3
M  V30 26 1 20 27
M  V30 27 1 21 28 CFG=1
M  V30 28 1 21 29
M  V30 29 1 26 30 CFG=3
M  V30 30 1 27 31 CFG=1
M  V30 31 2 29 32
M  V30 32 1 31 33
M  V30 33 2 33 34
M  V30 34 1 33 35
M  V30 35 1 34 36
M  V30 36 2 35 37
M  V30 37 2 36 38
M  V30 38 1 11 10 CFG=1
M  V30 39 1 16 17
M  V30 40 1 25 27
M  V30 41 1 26 29
M  V30 42 1 37 38
M  V30 END BOND
M  V30 BEGIN COLLECTION
M  V30 MDLV30/STEABS ATOMS=(11 3 4 6 11 13 16 17 20 21 26 27)
M  V30 END COLLECTION
M  V30 END CTAB
M  END
>  <Compound>
19,20-Epoxycytochalasin D

>  <Origin>
Rosellinia rickii
Xylaria karyophthora

>  <Reference>
Yuyama, K.T.; Wendt, L.; Surup, F.; Kretz, R.; Chepkirui, C.; Wittstein, K.; Boonlarppradab, C.; Wongkanoun, S.; Luangsa-ard, J.J.; Stadler, M.; et al. Cytochalasans act as inhibitors of biofilm formation of Staphylococcus aureus. Biomolecules 2015, 8, 4.
Lambert C, Shao L, Zeng H, Surup F, Saetang P, Aime MC, Husbands DR, Rottner K, Stradal TEB, Stadler M. Cytochalasans produced by Xylaria karyophthora and their biological activities. Mycologia. 2023 May-Jun;115(3):277-287. doi: 10.1080/00275514.2023.2188868. Epub 2023 Apr 5. PMID: 37017575.

>  <Actin Disruption Activity (1h Treatment)>
++

>  <Reversibilty>
+

>  <Box ID>
3C0130

>  <Quantity>
available

>  <Cytotoxicity in L929 mouse fibroblasts [µM]>
1.2

>  <Synonyms>
compound 16
compound 6

>  <Subclass>
Cytochalasin

>  <Molecular Formula>
C30H37NO7

>  <Total Molweight>
523.624

>  <Smiles>
C[C@@H]([C@@H]([C@H](Cc1ccccc1)N1)[C@@]([C@H]([C@@H]2O)/C=C/C[C@H](C)C([C@@](C)([C@@H]3O[C@H]33)O)=O)([C@@H]3OC(C)=O)C1=O)C2=C

>  <Amino Acid>
Phenylalanine

>  <Cytotoxicity in L929 mouse Fibroblasts [µg/mL]>
0.62

>  <Cytotoxicity in KB3.1>


>  <Anti-Biofilm>
+

$$$$
Compound 6
Actelion Java MolfileCreator 2.0

  0  0  0  0  0  0              0 V3000
M  V30 BEGIN CTAB
M  V30 COUNTS 38 43 0 0 0
M  V30 BEGIN ATOM
M  V30 1 O 0.0 0.0 0.0 0
M  V30 2 C -0.9889 1.1323 0.0 0
M  V30 3 C -2.6659 0.7739 0.0 0 CFG=2
M  V30 4 C -0.4299 2.6802 0.0 0 CFG=2
M  V30 5 O -1.3473 -0.8599 0.0 0
M  V30 6 C -3.9559 1.5193 0.0 0 CFG=2
M  V30 7 C -2.6946 -0.6593 0.0 0
M  V30 8 C -1.5193 3.7409 0.0 0
M  V30 9 C 1.2326 2.7232 0.0 0
M  V30 10 O -3.9846 0.1863 0.0 0
M  V30 11 C -5.2459 0.8313 0.0 0 CFG=1
M  V30 12 C -2.7376 3.7552 0.0 0
M  V30 13 C -6.2062 1.2756 0.0 0 CFG=1
M  V30 14 C -4.0276 3.0672 0.0 0
M  V30 15 O -6.2349 -0.3869 0.0 0
M  V30 16 C -6.5645 3.0816 0.0 0 CFG=1
M  V30 17 C -5.3175 3.8126 0.0 0 CFG=2
M  V30 18 C -5.2889 -1.3329 0.0 0
M  V30 19 C -7.3242 1.2756 0.0 0
M  V30 20 C -7.8545 3.8269 0.0 0 CFG=1
M  V30 21 C -5.3462 5.3032 0.0 0 CFG=2
M  V30 22 O -3.9559 -1.1323 0.0 0
M  V30 23 C -5.9912 -2.4939 0.0 0
M  V30 24 O -7.3528 -0.3439 0.0 0
M  V30 25 N -8.9725 1.6769 0.0 0
M  V30 26 C -7.8832 5.3175 0.0 0 CFG=2
M  V30 27 C -9.1445 3.1389 0.0 0 CFG=1
M  V30 28 O -4.1136 6.0485 0.0 0
M  V30 29 C -6.6362 6.0485 0.0 0 CFG=1
M  V30 30 O -7.9118 6.7079 0.0 0
M  V30 31 C -9.2735 5.3462 0.0 0
M  V30 32 C -10.4345 3.8842 0.0 0
M  V30 33 C -11.7244 3.1962 0.0 0
M  V30 34 C -13.0144 3.9416 0.0 0
M  V30 35 C -11.7531 1.7629 0.0 0
M  V30 36 C -14.3044 3.2536 0.0 0
M  V30 37 C -13.0431 1.0749 0.0 0
M  V30 38 C -14.3331 1.8203 0.0 0
M  V30 END ATOM
M  V30 BEGIN BOND
M  V30 1 2 1 2
M  V30 2 1 2 3
M  V30 3 1 2 4
M  V30 4 1 3 5 CFG=3
M  V30 5 1 3 6
M  V30 6 1 3 7
M  V30 7 1 4 8
M  V30 8 1 4 9 CFG=3
M  V30 9 1 6 10 CFG=1
M  V30 10 1 6 11
M  V30 11 1 8 12
M  V30 12 1 11 13
M  V30 13 2 12 14
M  V30 14 1 13 15 CFG=1
M  V30 15 1 13 16
M  V30 16 1 17 14 CFG=3
M  V30 17 1 15 18
M  V30 18 1 16 19 CFG=3
M  V30 19 1 16 20
M  V30 20 1 17 21
M  V30 21 2 18 22
M  V30 22 1 18 23
M  V30 23 2 19 24
M  V30 24 1 19 25
M  V30 25 1 20 26 CFG=3
M  V30 26 1 20 27
M  V30 27 1 21 28 CFG=1
M  V30 28 1 21 29
M  V30 29 1 26 30 CFG=1
M  V30 30 1 26 31
M  V30 31 1 27 32 CFG=1
M  V30 32 1 32 33
M  V30 33 2 33 34
M  V30 34 1 33 35
M  V30 35 1 34 36
M  V30 36 2 35 37
M  V30 37 2 36 38
M  V30 38 1 11 10 CFG=1
M  V30 39 1 16 17
M  V30 40 1 25 27
M  V30 41 1 26 29
M  V30 42 1 29 30 CFG=1
M  V30 43 1 37 38
M  V30 END BOND
M  V30 BEGIN COLLECTION
M  V30 MDLV30/STEABS ATOMS=(12 3 4 6 11 13 16 17 20 21 26 27 29)
M  V30 END COLLECTION
M  V30 END CTAB
M  END
>  <Compound>
19,20-Epoxycytochalasin N

>  <Origin>
Rosellinia rickii
Xylaria karyophthora

>  <Reference>
Yuyama, K.T.; Wendt, L.; Surup, F.; Kretz, R.; Chepkirui, C.; Wittstein, K.; Boonlarppradab, C.; Wongkanoun, S.; Luangsa-ard, J.J.; Stadler, M.; et al. Cytochalasans act as inhibitors of biofilm formation of Staphylococcus aureus. Biomolecules 2015, 8, 4.
Lambert C, Shao L, Zeng H, Surup F, Saetang P, Aime MC, Husbands DR, Rottner K, Stradal TEB, Stadler M. Cytochalasans produced by Xylaria karyophthora and their biological activities. Mycologia. 2023 May-Jun;115(3):277-287. doi: 10.1080/00275514.2023.2188868. Epub 2023 Apr 5. PMID: 37017575.

>  <Actin Disruption Activity (1h Treatment)>
++

>  <Reversibilty>
+

>  <Box ID>
3C0131

>  <Quantity>
available

>  <Cytotoxicity in L929 mouse fibroblasts [µM]>
no inhibition

>  <Synonyms>
compound 17
compound 8

>  <Subclass>
Cytochalasin

>  <Molecular Formula>
C29H35NO8

>  <Total Molweight>
525.596

>  <Smiles>
C[C@@H](C/C=C/[C@@H]([C@@H]([C@@H]1O[C@]1(C)[C@H]1[C@H](Cc2ccccc2)N2)O)[C@]1([C@@H]([C@@H]1O[C@H]1[C@@]1(C)O)OC(C)=O)C2=O)C1=O

>  <Amino Acid>
Phenylalanine

>  <Cytotoxicity in L929 mouse Fibroblasts [µg/mL]>
no inhibtion

>  <Cytotoxicity in KB3.1>
0.69 µg/mL
1.3 µM 

>  <Anti-Biofilm>
not tested

$$$$
Compound 7
Actelion Java MolfileCreator 2.0

  0  0  0  0  0  0              0 V3000
M  V30 BEGIN CTAB
M  V30 COUNTS 38 43 0 0 0
M  V30 BEGIN ATOM
M  V30 1 O 0.0 0.0 0.0 0
M  V30 2 C -1.0137 1.1565 0.0 0
M  V30 3 C -2.7127 0.8281 0.0 0 CFG=2
M  V30 4 C -0.4854 2.727 0.0 0 CFG=2
M  V30 5 O -1.4277 -0.771 0.0 0
M  V30 6 C -4.0263 1.5991 0.0 0 CFG=2
M  V30 7 C -2.7698 -0.5711 0.0 0
M  V30 8 C -1.5991 3.8121 0.0 0
M  V30 9 C 1.1422 2.7984 0.0 0
M  V30 10 O -4.0834 0.2998 0.0 0
M  V30 11 C -5.3398 0.9423 0.0 0 CFG=1
M  V30 12 C -2.8412 3.855 0.0 0
M  V30 13 C -6.325 1.4135 0.0 0 CFG=1
M  V30 14 C -4.1548 3.1982 0.0 0
M  V30 15 O -6.3821 -0.2141 0.0 0
M  V30 16 C -6.7105 3.241 0.0 0 CFG=1
M  V30 17 C -5.4683 3.9692 0.0 0 CFG=2
M  V30 18 C -5.4683 -1.1279 0.0 0
M  V30 19 C -7.4958 1.4706 0.0 0
M  V30 20 C -8.0241 4.012 0.0 0 CFG=1
M  V30 21 C -5.5255 5.4826 0.0 0 CFG=2
M  V30 22 O -4.1691 -0.8995 0.0 0
M  V30 23 C -6.1965 -2.2558 0.0 0
M  V30 24 O -7.5529 -0.1142 0.0 0
M  V30 25 N -9.1663 1.8989 0.0 0
M  V30 26 C -8.0812 5.5255 0.0 0 CFG=1
M  V30 27 C -9.3376 3.3552 0.0 0 CFG=1
M  V30 28 O -5.5255 6.6249 0.0 0
M  V30 29 C -6.839 6.2536 0.0 0 CFG=1
M  V30 30 C -9.3947 6.2965 0.0 0
M  V30 31 C -10.6512 4.1262 0.0 0
M  V30 32 C -6.8961 7.7671 0.0 0
M  V30 33 C -11.9648 3.4695 0.0 0
M  V30 34 C -13.2783 4.2405 0.0 0
M  V30 35 C -12.0219 2.0702 0.0 0
M  V30 36 C -14.5919 3.5837 0.0 0
M  V30 37 C -13.3354 1.4135 0.0 0
M  V30 38 C -14.649 2.1845 0.0 0
M  V30 END ATOM
M  V30 BEGIN BOND
M  V30 1 2 1 2
M  V30 2 1 2 3
M  V30 3 1 2 4
M  V30 4 1 3 5 CFG=3
M  V30 5 1 3 6
M  V30 6 1 3 7
M  V30 7 1 4 8
M  V30 8 1 4 9 CFG=3
M  V30 9 1 6 10 CFG=1
M  V30 10 1 6 11
M  V30 11 1 8 12
M  V30 12 1 11 13
M  V30 13 2 12 14
M  V30 14 1 13 15 CFG=1
M  V30 15 1 13 16
M  V30 16 1 17 14 CFG=3
M  V30 17 1 15 18
M  V30 18 1 16 19 CFG=3
M  V30 19 1 16 20
M  V30 20 1 17 21
M  V30 21 2 18 22
M  V30 22 1 18 23
M  V30 23 2 19 24
M  V30 24 1 19 25
M  V30 25 1 20 26 CFG=3
M  V30 26 1 20 27
M  V30 27 1 21 28 CFG=1
M  V30 28 1 21 29
M  V30 29 1 26 30 CFG=3
M  V30 30 1 27 31 CFG=1
M  V30 31 1 29 32 CFG=3
M  V30 32 1 31 33
M  V30 33 2 33 34
M  V30 34 1 33 35
M  V30 35 1 34 36
M  V30 36 2 35 37
M  V30 37 2 36 38
M  V30 38 1 11 10 CFG=1
M  V30 39 1 16 17
M  V30 40 1 25 27
M  V30 41 1 26 29
M  V30 42 1 28 29
M  V30 43 1 37 38
M  V30 END BOND
M  V30 BEGIN COLLECTION
M  V30 MDLV30/STEABS ATOMS=(12 3 4 6 11 13 16 17 20 21 26 27 29)
M  V30 END COLLECTION
M  V30 END CTAB
M  END
>  <Compound>
19,20-Epoxycytochalasin Q

>  <Origin>
Xylaria karyophthora

>  <Reference>
Lambert C, Shao L, Zeng H, Surup F, Saetang P, Aime MC, Husbands DR, Rottner K, Stradal TEB, Stadler M. Cytochalasans produced by Xylaria karyophthora and their biological activities. Mycologia. 2023 May-Jun;115(3):277-287. doi: 10.1080/00275514.2023.2188868. Epub 2023 Apr 5. PMID: 37017575.

>  <Actin Disruption Activity (1h Treatment)>
++

>  <Reversibilty>
+

>  <Box ID>
3C0132

>  <Quantity>
available

>  <Cytotoxicity in L929 mouse fibroblasts [µM]>
0.5

>  <Synonyms>
compound 10

>  <Subclass>
Cytochalasin

>  <Molecular Formula>
C30H37NO7

>  <Total Molweight>
523.624

>  <Smiles>
C[C@@H]([C@@H]([C@H](Cc1ccccc1)N1)[C@@]2([C@@H]([C@@H]3O[C@H]3[C@@]3(C)O)OC(C)=O)C1=O)[C@@]1(C)O[C@H]1[C@@H]2/C=C/C[C@H](C)C3=O

>  <Amino Acid>
Phenylalanine

>  <Cytotoxicity in L929 mouse Fibroblasts [µg/mL]>
0.26

>  <Cytotoxicity in KB3.1>


>  <Anti-Biofilm>
+

$$$$
Compound 8
Actelion Java MolfileCreator 2.0

  0  0  0  0  0  0              0 V3000
M  V30 BEGIN CTAB
M  V30 COUNTS 32 35 0 0 0
M  V30 BEGIN ATOM
M  V30 1 O 0.0 0.0 0.0 0
M  V30 2 C 0.4085 1.2858 0.0 0
M  V30 3 N -1.1175 1.1536 0.0 0
M  V30 4 C 0.6969 2.7879 0.0 0 CFG=1
M  V30 5 C -1.7664 2.5595 0.0 0 CFG=2
M  V30 6 C 0.6729 1.2978 0.0 0 CFG=2
M  V30 7 C 1.9827 3.569 0.0 0 CFG=1
M  V30 8 C -0.6368 3.569 0.0 0 CFG=2
M  V30 9 C -3.2685 2.896 0.0 0
M  V30 10 O 0.6849 0.048 0.0 0
M  V30 11 C 1.9587 0.5527 0.0 0
M  V30 12 C 3.2685 2.8359 0.0 0
M  V30 13 C 1.9587 5.1071 0.0 0 CFG=2
M  V30 14 C -0.6609 5.1071 0.0 0 CFG=1
M  V30 15 C -4.302 1.8025 0.0 0
M  V30 16 C 3.2445 1.3338 0.0 0
M  V30 17 C 4.4222 3.7973 0.0 0
M  V30 18 O 3.2445 5.8882 0.0 0
M  V30 19 C 0.6248 5.8882 0.0 0
M  V30 20 C -1.9947 5.8882 0.0 0
M  V30 21 C -5.8041 2.1389 0.0 0
M  V30 22 C -3.8574 0.3845 0.0 0
M  V30 23 C 4.3981 0.4205 0.0 0 CFG=2
M  V30 24 C 5.8762 3.4848 0.0 0
M  V30 25 C 0.6008 7.4264 0.0 0
M  V30 26 C -6.8375 1.0454 0.0 0
M  V30 27 C -4.8908 -0.7089 0.0 0
M  V30 28 C 5.8522 0.781 0.0 0
M  V30 29 C 4.0376 -1.0334 0.0 0
M  V30 30 C 6.5131 2.151 0.0 0 CFG=1
M  V30 31 C -6.3929 -0.3725 0.0 0
M  V30 32 C 8.0032 2.175 0.0 0
M  V30 END ATOM
M  V30 BEGIN BOND
M  V30 1 2 1 2
M  V30 2 1 2 3
M  V30 3 1 4 2 CFG=3
M  V30 4 1 3 5
M  V30 5 1 4 6
M  V30 6 1 4 7
M  V30 7 1 4 8
M  V30 8 1 5 9 CFG=1
M  V30 9 1 6 10 CFG=1
M  V30 10 1 6 11
M  V30 11 1 7 12 CFG=3
M  V30 12 1 7 13
M  V30 13 1 8 14 CFG=3
M  V30 14 1 9 15
M  V30 15 2 11 16
M  V30 16 2 12 17
M  V30 17 1 13 18 CFG=1
M  V30 18 1 13 19
M  V30 19 1 14 20 CFG=3
M  V30 20 2 15 21
M  V30 21 1 15 22
M  V30 22 1 16 23
M  V30 23 1 17 24
M  V30 24 2 19 25
M  V30 25 1 21 26
M  V30 26 2 22 27
M  V30 27 1 23 28
M  V30 28 1 23 29 CFG=3
M  V30 29 1 24 30
M  V30 30 2 26 31
M  V30 31 1 30 32 CFG=3
M  V30 32 1 5 8
M  V30 33 1 14 19
M  V30 34 1 27 31
M  V30 35 1 28 30
M  V30 END BOND
M  V30 BEGIN COLLECTION
M  V30 MDLV30/STEABS ATOMS=(9 4 5 6 7 8 13 14 23 30)
M  V30 END COLLECTION
M  V30 END CTAB
M  END
>  <Compound>
21-O-Deacyl-L-696,474

>  <Origin>
Hypoxylon fragiforme

>  <Reference>
Kretz, R., Wendt, L., Wongkanoun, S., Luangsa-ard, J., Surup, F., Helaly, S., … Stradal, T. (2019). The Effect of Cytochalasans on the Actin Cytoskeleton of Eukaryotic Cells and Preliminary Structure–Activity Relationships. Biomolecules, 9(2), 73. doi:10.

>  <Actin Disruption Activity (1h Treatment)>
+++

>  <Reversibilty>
+

>  <Box ID>
not available

>  <Quantity>
not available

>  <Cytotoxicity in L929 mouse fibroblasts [µM]>
not tested

>  <Synonyms>
compound 10

>  <Subclass>
Cytochalasin

>  <Molecular Formula>
C28H37NO3

>  <Total Molweight>
435.606

>  <Smiles>
C[C@@H]([C@@H]([C@H](Cc1ccccc1)N1)[C@@]([C@H]([C@@H]2O)/C=C/C[C@H](C)C[C@H](C)/C=C3)([C@@H]\3O)C1=O)C2=C

>  <Amino Acid>
Phenylalanine

>  <Cytotoxicity in L929 mouse Fibroblasts [µg/mL]>
not tested

>  <Cytotoxicity in KB3.1>


>  <Anti-Biofilm>
+

$$$$
Compound 9
Actelion Java MolfileCreator 2.0

  0  0  0  0  0  0              0 V3000
M  V30 BEGIN CTAB
M  V30 COUNTS 35 40 0 0 0
M  V30 BEGIN ATOM
M  V30 1 O 0.0 0.0 0.0 0
M  V30 2 C 0.4769 1.3115 0.0 0
M  V30 3 N -1.0372 1.1922 0.0 0
M  V30 4 C 0.7511 2.8019 0.0 0 CFG=2
M  V30 5 C -1.693 2.5872 0.0 0 CFG=2
M  V30 6 C 0.7153 1.3472 0.0 0 CFG=2
M  V30 7 C -0.5723 3.5649 0.0 0 CFG=2
M  V30 8 C 2.003 3.5649 0.0 0 CFG=2
M  V30 9 C -3.1834 2.933 0.0 0
M  V30 10 O 0.6796 0.0238 0.0 0
M  V30 11 C 1.9672 0.6319 0.0 0
M  V30 12 C -0.608 5.0911 0.0 0 CFG=1
M  V30 13 C 1.9672 5.0911 0.0 0 CFG=1
M  V30 14 C 3.2549 2.8495 0.0 0 CFG=1
M  V30 15 C -4.2088 1.8719 0.0 0
M  V30 16 C -0.6438 -0.6915 0.0 0
M  V30 17 C 3.2192 1.4069 0.0 0 CFG=2
M  V30 18 C 0.6438 5.8541 0.0 0
M  V30 19 C -1.9315 5.8541 0.0 0
M  V30 20 O 3.2192 5.8541 0.0 0
M  V30 21 C 4.3757 3.8034 0.0 0 CFG=2
M  V30 22 C -5.6991 2.2176 0.0 0
M  V30 23 C -3.7795 0.4888 0.0 0
M  V30 24 O -1.9672 0.0834 0.0 0
M  V30 25 C -0.6796 -2.1461 0.0 0
M  V30 26 C 4.3399 0.5246 0.0 0
M  V30 27 C 0.608 7.3803 0.0 0
M  V30 28 C 5.7945 3.5053 0.0 0
M  V30 29 C -6.7245 1.1565 0.0 0
M  V30 30 C -4.8049 -0.5723 0.0 0
M  V30 31 C 5.7587 0.8942 0.0 0
M  V30 32 C 3.9703 -0.8942 0.0 0
M  V30 33 C 6.4145 2.2057 0.0 0 CFG=1
M  V30 34 C -6.2953 -0.2265 0.0 0
M  V30 35 C 7.8691 2.2415 0.0 0
M  V30 END ATOM
M  V30 BEGIN BOND
M  V30 1 2 1 2
M  V30 2 1 2 3
M  V30 3 1 4 2 CFG=3
M  V30 4 1 3 5
M  V30 5 1 4 6
M  V30 6 1 4 7
M  V30 7 1 8 4 CFG=3
M  V30 8 1 5 9 CFG=1
M  V30 9 1 6 10 CFG=1
M  V30 10 1 6 11
M  V30 11 1 7 12 CFG=3
M  V30 12 1 8 13
M  V30 13 1 8 14
M  V30 14 1 9 15
M  V30 15 1 10 16
M  V30 16 1 11 17
M  V30 17 1 12 18
M  V30 18 1 12 19 CFG=3
M  V30 19 1 13 20 CFG=1
M  V30 20 1 14 21
M  V30 21 2 15 22
M  V30 22 1 15 23
M  V30 23 2 16 24
M  V30 24 1 16 25
M  V30 25 1 17 26 CFG=3
M  V30 26 2 18 27
M  V30 27 1 21 28
M  V30 28 1 22 29
M  V30 29 2 23 30
M  V30 30 2 26 31
M  V30 31 1 26 32
M  V30 32 1 28 33
M  V30 33 2 29 34
M  V30 34 1 33 35 CFG=3
M  V30 35 1 5 7
M  V30 36 1 13 18
M  V30 37 1 14 17 CFG=3
M  V30 38 1 21 20 CFG=3
M  V30 39 1 30 34
M  V30 40 1 31 33
M  V30 END BOND
M  V30 BEGIN COLLECTION
M  V30 MDLV30/STEABS ATOMS=(11 4 5 6 7 8 12 13 14 17 21 33)
M  V30 END COLLECTION
M  V30 END CTAB
M  END
>  <Compound>
21-acetoxycytochalasin J3

>  <Origin>
Diaporte ueckeri

>  <Reference>
Kemkuignou BM, Lambert C, Schmidt K, Schweizer L, Anoumedem EGM, Kouam SF, Stadler M, Stradal T, Marin-Felix Y. Unreported cytochalasins from an acid-mediated transformation of cytochalasin J isolated from Diaporthe cf. ueckeri. Fitoterapia. 2023 Apr;166:105434. doi: 10.1016/j.fitote.2023.105434. Epub 2023 Jan 19. PMID: 36681097.

>  <Actin Disruption Activity (1h Treatment)>
+/-

>  <Reversibilty>
+

>  <Box ID>
2C0084

>  <Quantity>
0.59 mg

>  <Cytotoxicity in L929 mouse fibroblasts [µM]>
44.2

>  <Synonyms>
compound 5

>  <Subclass>
Cytochalasin

>  <Molecular Formula>
C30H37NO4

>  <Total Molweight>
475.627

>  <Smiles>
C[C@@H]([C@@H]([C@H](Cc1ccccc1)N1)[C@@]([C@@H]2[C@@H]3O[C@H]4[C@@H]2[C@@H](C2)C(C)=C[C@@H](C)C4)([C@@H]2OC(C)=O)C1=O)C3=C

>  <Amino Acid>
Phenylalanine

>  <Cytotoxicity in L929 mouse Fibroblasts [µg/mL]>
21

>  <Cytotoxicity in KB3.1>


>  <Anti-Biofilm>
not tested

$$$$
Compound 10
Actelion Java MolfileCreator 2.0

  0  0  0  0  0  0              0 V3000
M  V30 BEGIN CTAB
M  V30 COUNTS 35 38 0 0 0
M  V30 BEGIN ATOM
M  V30 1 O 0.0 0.0 0.0 0
M  V30 2 C 0.4085 1.2858 0.0 0
M  V30 3 N -1.1176 1.1536 0.0 0
M  V30 4 C 0.697 2.788 0.0 0 CFG=1
M  V30 5 C -1.7665 2.5597 0.0 0 CFG=2
M  V30 6 C 0.6729 1.2978 0.0 0 CFG=2
M  V30 7 C 1.9828 3.5571 0.0 0 CFG=1
M  V30 8 C -0.6369 3.5571 0.0 0 CFG=2
M  V30 9 C -3.2687 2.8962 0.0 0
M  V30 10 O 0.685 0.048 0.0 0
M  V30 11 C 1.9588 0.5528 0.0 0
M  V30 12 C 3.2687 2.8241 0.0 0
M  V30 13 C 1.9588 5.0954 0.0 0 CFG=2
M  V30 14 C -0.6609 5.0954 0.0 0 CFG=1
M  V30 15 C -4.3022 1.8026 0.0 0
M  V30 16 C -0.6249 -0.721 0.0 0
M  V30 17 C 3.2447 1.3219 0.0 0
M  V30 18 C 4.4224 3.7855 0.0 0
M  V30 19 O 3.2447 5.8645 0.0 0
M  V30 20 C 0.6249 5.8645 0.0 0
M  V30 21 C -1.9949 5.8645 0.0 0
M  V30 22 C -5.8044 2.1391 0.0 0
M  V30 23 C -3.8576 0.3845 0.0 0
M  V30 24 O -1.9708 0.024 0.0 0
M  V30 25 C -0.6008 -2.2112 0.0 0
M  V30 26 C 4.3984 0.4085 0.0 0 CFG=2
M  V30 27 C 5.8765 3.473 0.0 0
M  V30 28 C 0.6008 7.4028 0.0 0
M  V30 29 C -6.8379 1.0455 0.0 0
M  V30 30 C -4.8911 -0.709 0.0 0
M  V30 31 C 5.8525 0.7691 0.0 0
M  V30 32 C 4.0378 -1.0455 0.0 0
M  V30 33 C 6.5135 2.1391 0.0 0 CFG=1
M  V30 34 C -6.3933 -0.3725 0.0 0
M  V30 35 C 8.0036 2.1631 0.0 0
M  V30 END ATOM
M  V30 BEGIN BOND
M  V30 1 2 1 2
M  V30 2 1 2 3
M  V30 3 1 4 2 CFG=3
M  V30 4 1 3 5
M  V30 5 1 4 6
M  V30 6 1 4 7
M  V30 7 1 4 8
M  V30 8 1 5 9 CFG=1
M  V30 9 1 6 10 CFG=1
M  V30 10 1 6 11
M  V30 11 1 7 12 CFG=3
M  V30 12 1 7 13
M  V30 13 1 8 14 CFG=3
M  V30 14 1 9 15
M  V30 15 1 10 16
M  V30 16 2 11 17
M  V30 17 2 12 18
M  V30 18 1 13 19 CFG=1
M  V30 19 1 13 20
M  V30 20 1 14 21 CFG=3
M  V30 21 2 15 22
M  V30 22 1 15 23
M  V30 23 2 16 24
M  V30 24 1 16 25
M  V30 25 1 17 26
M  V30 26 1 18 27
M  V30 27 2 20 28
M  V30 28 1 22 29
M  V30 29 2 23 30
M  V30 30 1 26 31
M  V30 31 1 26 32 CFG=3
M  V30 32 1 27 33
M  V30 33 2 29 34
M  V30 34 1 33 35 CFG=3
M  V30 35 1 5 8
M  V30 36 1 14 20
M  V30 37 1 30 34
M  V30 38 1 31 33
M  V30 END BOND
M  V30 BEGIN COLLECTION
M  V30 MDLV30/STEABS ATOMS=(9 4 5 6 7 8 13 14 26 33)
M  V30 END COLLECTION
M  V30 END CTAB
M  END
>  <Compound>
22,29-dihydroxy-L 696

>  <Origin>
Hypoxylon fragiforme

>  <Reference>
Kretz, R., Wendt, L., Wongkanoun, S., Luangsa-ard, J., Surup, F., Helaly, S., … Stradal, T. (2019). The Effect of Cytochalasans on the Actin Cytoskeleton of Eukaryotic Cells and Preliminary Structure–Activity Relationships. Biomolecules, 9(2), 73. doi:10.

>  <Actin Disruption Activity (1h Treatment)>
+++

>  <Reversibilty>
+

>  <Box ID>
not available

>  <Quantity>
not available

>  <Cytotoxicity in L929 mouse fibroblasts [µM]>
not tested

>  <Synonyms>
compound 9

>  <Subclass>
Cytochalasin

>  <Molecular Formula>
C30H39NO4

>  <Total Molweight>
477.643

>  <Smiles>
C[C@@H]([C@@H]([C@H](Cc1ccccc1)N1)[C@@]([C@H]([C@@H]2O)/C=C/C[C@H](C)C[C@H](C)/C=C3)([C@@H]\3OC(C)=O)C1=O)C2=C

>  <Amino Acid>
Phenylalanine

>  <Cytotoxicity in L929 mouse Fibroblasts [µg/mL]>
not tested

>  <Cytotoxicity in KB3.1>


>  <Anti-Biofilm>
+

$$$$
Compound 11
Actelion Java MolfileCreator 2.0

  0  0  0  0  0  0              0 V3000
M  V30 BEGIN CTAB
M  V30 COUNTS 42 46 0 0 0
M  V30 BEGIN ATOM
M  V30 1 O 0.0 0.0 0.0 0
M  V30 2 C 0.0844 1.2552 0.0 0
M  V30 3 N -1.4483 1.1345 0.0 0
M  V30 4 C 0.362 2.764 0.0 0 CFG=1
M  V30 5 C -2.1122 2.5467 0.0 0 CFG=2
M  V30 6 C 0.3258 1.2914 0.0 0 CFG=2
M  V30 7 C 1.6294 3.5485 0.0 0 CFG=1
M  V30 8 C -0.9776 3.5485 0.0 0 CFG=2
M  V30 9 C -3.6209 2.8967 0.0 0
M  V30 10 O 0.7724 -0.0965 0.0 0
M  V30 11 C 1.5932 0.5672 0.0 0
M  V30 12 C 2.8967 2.8122 0.0 0
M  V30 13 C 1.5932 5.0935 0.0 0 CFG=2
M  V30 14 C -1.0138 5.0935 0.0 0 CFG=1
M  V30 15 C -4.6589 1.8225 0.0 0
M  V30 16 C -0.2534 -1.1828 0.0 0
M  V30 17 C 2.8605 1.3397 0.0 0
M  V30 18 C 4.0313 3.7778 0.0 0
M  V30 19 O 2.8605 5.878 0.0 0
M  V30 20 C 0.2534 5.878 0.0 0
M  V30 21 C -2.3536 5.878 0.0 0
M  V30 22 C -6.1677 2.1725 0.0 0
M  V30 23 C -4.2244 0.4224 0.0 0
M  V30 24 O -1.7622 -0.8328 0.0 0
M  V30 25 C 0.1931 -2.5829 0.0 0
M  V30 26 C 3.9951 0.4465 0.0 0 CFG=2
M  V30 27 C 5.4676 3.4761 0.0 0
M  V30 28 C 0.2172 7.423 0.0 0
M  V30 29 C -7.2057 1.0983 0.0 0
M  V30 30 C -5.2624 -0.6517 0.0 0
M  V30 31 O 4.7314 -0.9414 0.0 0
M  V30 32 C 5.4314 0.8207 0.0 0
M  V30 33 C 2.8002 -0.4707 0.0 0
M  V30 34 C 6.0953 2.1605 0.0 0 CFG=1
M  V30 35 C -6.7712 -0.3017 0.0 0
M  V30 36 C 7.5678 2.1967 0.0 0
M  V30 37 N -7.8092 -1.3759 0.0 0
M  V30 38 N -9.3421 -1.1828 0.0 0
M  V30 39 C -7.5316 -2.8122 0.0 0
M  V30 40 N -10.0059 -2.5226 0.0 0
M  V30 41 C -8.8713 -3.5485 0.0 0
M  V30 42 C -9.0645 -5.009 0.0 0
M  V30 END ATOM
M  V30 BEGIN BOND
M  V30 1 2 1 2
M  V30 2 1 2 3
M  V30 3 1 4 2 CFG=3
M  V30 4 1 3 5
M  V30 5 1 4 6
M  V30 6 1 4 7
M  V30 7 1 4 8
M  V30 8 1 5 9 CFG=1
M  V30 9 1 6 10 CFG=1
M  V30 10 1 6 11
M  V30 11 1 7 12 CFG=3
M  V30 12 1 7 13
M  V30 13 1 8 14 CFG=3
M  V30 14 1 9 15
M  V30 15 1 10 16
M  V30 16 2 11 17
M  V30 17 2 12 18
M  V30 18 1 13 19 CFG=1
M  V30 19 1 13 20
M  V30 20 1 14 21 CFG=3
M  V30 21 2 15 22
M  V30 22 1 15 23
M  V30 23 2 16 24
M  V30 24 1 16 25
M  V30 25 1 17 26
M  V30 26 1 18 27
M  V30 27 2 20 28
M  V30 28 1 22 29
M  V30 29 2 23 30
M  V30 30 1 26 31 CFG=1
M  V30 31 1 26 32
M  V30 32 1 26 33
M  V30 33 1 27 34
M  V30 34 2 29 35
M  V30 35 1 34 36 CFG=3
M  V30 36 1 35 37
M  V30 37 1 37 38
M  V30 38 1 37 39
M  V30 39 2 38 40
M  V30 40 2 39 41
M  V30 41 1 41 42
M  V30 42 1 5 8
M  V30 43 1 14 20
M  V30 44 1 30 35
M  V30 45 1 32 34
M  V30 46 1 40 41
M  V30 END BOND
M  V30 BEGIN COLLECTION
M  V30 MDLV30/STEABS ATOMS=(9 4 5 6 7 8 13 14 26 34)
M  V30 END COLLECTION
M  V30 END CTAB
M  END
>  <Compound>
4'-(1-(4-methyltriazolyl)) cytochalasin H

>  <Origin>
Magnaporthe grisea
semi-synthetic
mutasynthesis

>  <Reference>
Wang C, Lambert C, Hauser M, Deuschmann A, Zeilinger C, Rottner K, Stradal TEB, Stadler M, Skellam EJ, Cox RJ. Diversely Functionalised Cytochalasins through Mutasynthesis and Semi-Synthesis. Chemistry. 2020 Oct 27;26(60):13578-13583. doi: 10.1002/chem.202002241.

>  <Actin Disruption Activity (1h Treatment)>
++

>  <Reversibilty>
not tested

>  <Box ID>
not available

>  <Quantity>
not available

>  <Cytotoxicity in L929 mouse fibroblasts [µM]>
10.621

>  <Synonyms>
WC085
compound 5a

>  <Subclass>
Cytochalasin

>  <Molecular Formula>
C34H44N4O4

>  <Total Molweight>
572.747

>  <Smiles>
C[C@@H]([C@@H]([C@H](Cc(cc1)ccc1-[n]1nnc(C)c1)N1)[C@@]([C@H]([C@@H]2C)/C=C/C[C@H](C)C[C@](C)(/C=C3)O)([C@@H]\3OC(C)=O)C1=O)C2=C

>  <Amino Acid>
Tyrosine derivative
(p-methyltriazolyl)

>  <Cytotoxicity in L929 mouse Fibroblasts [µg/mL]>
6.1

>  <Cytotoxicity in KB3.1>


>  <Anti-Biofilm>
not tested

$$$$
Compound 12
Actelion Java MolfileCreator 2.0

  0  0  0  0  0  0              0 V3000
M  V30 BEGIN CTAB
M  V30 COUNTS 48 53 0 0 0
M  V30 BEGIN ATOM
M  V30 1 Br 0.0 0.0 0.0 0
M  V30 2 C 0.121 1.5371 0.0 0
M  V30 3 C 1.4645 2.2028 0.0 0
M  V30 4 C -1.1377 2.457 0.0 0
M  V30 5 C 1.5855 3.7399 0.0 0
M  V30 6 C -1.0166 3.9941 0.0 0
M  V30 7 C 0.3267 4.6598 0.0 0
M  V30 8 C 0.4478 6.197 0.0 0
M  V30 9 N -0.702 7.2379 0.0 0
M  V30 10 C 1.7187 6.9837 0.0 0
M  V30 11 N -0.1089 8.654 0.0 0
M  V30 12 N 1.3676 8.4966 0.0 0
M  V30 13 C 2.3359 9.6465 0.0 0
M  V30 14 C 1.8276 11.1231 0.0 0
M  V30 15 C 3.7762 9.3681 0.0 0
M  V30 16 C 2.7959 12.2729 0.0 0
M  V30 17 C 4.7445 10.5179 0.0 0
M  V30 18 C 4.2362 11.9945 0.0 0
M  V30 19 C 5.2045 13.1444 0.0 0
M  V30 20 C 6.6448 12.866 0.0 0 CFG=2
M  V30 21 N 7.2379 11.5225 0.0 0
M  V30 22 C 7.722 13.9069 0.0 0 CFG=1
M  V30 23 C 8.7024 11.7162 0.0 0
M  V30 24 C 8.9929 13.1686 0.0 0 CFG=2
M  V30 25 C 7.6857 15.4561 0.0 0 CFG=1
M  V30 26 O 8.545 10.53 0.0 0
M  V30 27 C 8.9566 11.692 0.0 0 CFG=2
M  V30 28 C 10.2637 13.9553 0.0 0 CFG=1
M  V30 29 C 8.9566 16.2429 0.0 0
M  V30 30 C 6.3422 16.2429 0.0 0
M  V30 31 O 9.4044 10.3 0.0 0
M  V30 32 C 10.2274 10.9657 0.0 0
M  V30 33 C 11.5346 13.217 0.0 0
M  V30 34 C 10.2274 15.5046 0.0 0 CFG=1
M  V30 35 C 8.9202 17.7921 0.0 0
M  V30 36 C 8.3756 9.2107 0.0 0
M  V30 37 C 11.4983 11.7525 0.0 0
M  V30 38 C 12.6723 14.1853 0.0 0
M  V30 39 O 11.4983 16.2913 0.0 0
M  V30 40 O 6.8626 9.5617 0.0 0
M  V30 41 C 8.8234 7.8067 0.0 0
M  V30 42 C 12.636 10.8568 0.0 0 CFG=2
M  V30 43 C 14.1127 13.8827 0.0 0
M  V30 44 O 13.3743 9.4649 0.0 0
M  V30 45 C 14.0763 11.232 0.0 0
M  V30 46 C 11.4378 9.9369 0.0 0
M  V30 47 C 14.742 12.5634 0.0 0 CFG=1
M  V30 48 C 16.2187 12.5997 0.0 0
M  V30 END ATOM
M  V30 BEGIN BOND
M  V30 1 1 1 2
M  V30 2 2 2 3
M  V30 3 1 2 4
M  V30 4 1 3 5
M  V30 5 2 4 6
M  V30 6 2 5 7
M  V30 7 1 7 8
M  V30 8 1 8 9
M  V30 9 2 8 10
M  V30 10 2 9 11
M  V30 11 1 10 12
M  V30 12 1 12 13
M  V30 13 2 13 14
M  V30 14 1 13 15
M  V30 15 1 14 16
M  V30 16 2 15 17
M  V30 17 2 16 18
M  V30 18 1 18 19
M  V30 19 1 20 19 CFG=1
M  V30 20 1 20 21
M  V30 21 1 20 22
M  V30 22 1 21 23
M  V30 23 1 22 24
M  V30 24 1 22 25 CFG=3
M  V30 25 2 23 26
M  V30 26 1 24 27
M  V30 27 1 24 28
M  V30 28 1 25 29
M  V30 29 1 25 30 CFG=3
M  V30 30 1 27 31 CFG=1
M  V30 31 1 27 32
M  V30 32 1 28 33 CFG=3
M  V30 33 1 28 34
M  V30 34 2 29 35
M  V30 35 1 31 36
M  V30 36 2 32 37
M  V30 37 2 33 38
M  V30 38 1 34 39 CFG=1
M  V30 39 2 36 40
M  V30 40 1 36 41
M  V30 41 1 37 42
M  V30 42 1 38 43
M  V30 43 1 42 44 CFG=1
M  V30 44 1 42 45
M  V30 45 1 42 46
M  V30 46 1 43 47
M  V30 47 1 47 48 CFG=3
M  V30 48 1 6 7
M  V30 49 1 11 12
M  V30 50 1 17 18
M  V30 51 1 24 23 CFG=3
M  V30 52 1 29 34
M  V30 53 1 45 47
M  V30 END BOND
M  V30 BEGIN COLLECTION
M  V30 MDLV30/STEABS ATOMS=(9 20 22 24 25 27 28 34 42 47)
M  V30 END COLLECTION
M  V30 END CTAB
M  END
>  <Compound>
4'-(1-(4-p-bromophenyltriazolyl)) Cytochalasin H

>  <Origin>
Magnporte grisea
semi-synthetic
mutasynthesis

>  <Reference>
Wang C, Lambert C, Hauser M, Deuschmann A, Zeilinger C, Rottner K, Stradal TEB, Stadler M, Skellam EJ, Cox RJ. Diversely Functionalised Cytochalasins through Mutasynthesis and Semi-Synthesis. Chemistry. 2020 Oct 27;26(60):13578-13583. doi: 10.1002/chem.202002241.

>  <Actin Disruption Activity (1h Treatment)>
+

>  <Reversibilty>
not tested

>  <Box ID>
2C0054

>  <Quantity>
available

>  <Cytotoxicity in L929 mouse fibroblasts [µM]>
0.364

>  <Synonyms>
WC084
compound 5c

>  <Subclass>
Cytochalasin

>  <Molecular Formula>
C39H45N4O4Br

>  <Total Molweight>
713.714

>  <Smiles>
C[C@@H]([C@@H]([C@H](Cc(cc1)ccc1-[n]1nnc(-c(cc2)ccc2Br)c1)N1)[C@@]([C@H]([C@@H]2C)/C=C/C[C@H](C)C[C@](C)(/C=C3)O)([C@@H]\3OC(C)=O)C1=O)C2=C

>  <Amino Acid>
Tyrosine derivative
(p-bromophenyltriazolyl)

>  <Cytotoxicity in L929 mouse Fibroblasts [µg/mL]>
0.26

>  <Cytotoxicity in KB3.1>


>  <Anti-Biofilm>
not tested

$$$$
Compound 13
Actelion Java MolfileCreator 2.0

  0  0  0  0  0  0              0 V3000
M  V30 BEGIN CTAB
M  V30 COUNTS 47 52 0 0 0
M  V30 BEGIN ATOM
M  V30 1 O 0.0 0.0 0.0 0
M  V30 2 C 0.0846 1.2571 0.0 0
M  V30 3 N -1.4505 1.1362 0.0 0
M  V30 4 C 0.3626 2.768 0.0 0 CFG=1
M  V30 5 C -2.1153 2.5504 0.0 0 CFG=2
M  V30 6 C 0.3263 1.2933 0.0 0 CFG=2
M  V30 7 C 1.6318 3.5537 0.0 0 CFG=1
M  V30 8 C -0.979 3.5537 0.0 0 CFG=2
M  V30 9 C -3.6262 2.901 0.0 0
M  V30 10 O 0.7736 -0.0967 0.0 0
M  V30 11 C 1.5955 0.5681 0.0 0
M  V30 12 C 2.901 2.8163 0.0 0
M  V30 13 C 1.5955 5.1009 0.0 0 CFG=2
M  V30 14 C -1.0153 5.1009 0.0 0 CFG=1
M  V30 15 C -4.6657 1.8252 0.0 0
M  V30 16 C -0.2538 -1.1845 0.0 0
M  V30 17 C 2.8647 1.3538 0.0 0
M  V30 18 C 4.0372 3.7833 0.0 0
M  V30 19 O 2.8647 5.8745 0.0 0
M  V30 20 C 0.2538 5.8745 0.0 0
M  V30 21 C -2.357 5.8745 0.0 0
M  V30 22 C -6.1767 2.1757 0.0 0
M  V30 23 C -4.2306 0.423 0.0 0
M  V30 24 O -1.7647 -0.834 0.0 0
M  V30 25 C 0.1934 -2.5867 0.0 0
M  V30 26 C 4.0009 0.4593 0.0 0 CFG=2
M  V30 27 C 5.4756 3.4812 0.0 0
M  V30 28 C 0.2175 7.4217 0.0 0
M  V30 29 C -7.2162 1.0999 0.0 0
M  V30 30 C -5.2701 -0.6527 0.0 0
M  V30 31 O 4.7383 -0.9307 0.0 0
M  V30 32 C 5.4393 0.834 0.0 0
M  V30 33 C 2.8043 -0.4593 0.0 0
M  V30 34 C 6.1042 2.1636 0.0 0 CFG=1
M  V30 35 C -6.7811 -0.3021 0.0 0
M  V30 36 C 7.5788 2.1999 0.0 0
M  V30 37 N -7.8206 -1.3779 0.0 0
M  V30 38 N -9.3557 -1.1845 0.0 0
M  V30 39 C -7.5426 -2.8163 0.0 0
M  V30 40 N -10.0205 -2.5262 0.0 0
M  V30 41 C -8.8843 -3.5537 0.0 0
M  V30 42 C -9.0777 -5.0163 0.0 0
M  V30 43 C -7.8931 -5.8624 0.0 0
M  V30 44 C -10.4919 -5.6086 0.0 0
M  V30 45 C -8.0865 -7.325 0.0 0
M  V30 46 C -10.6853 -7.0712 0.0 0
M  V30 47 C -9.5008 -7.9173 0.0 0
M  V30 END ATOM
M  V30 BEGIN BOND
M  V30 1 2 1 2
M  V30 2 1 2 3
M  V30 3 1 4 2 CFG=3
M  V30 4 1 3 5
M  V30 5 1 4 6
M  V30 6 1 4 7
M  V30 7 1 4 8
M  V30 8 1 5 9 CFG=1
M  V30 9 1 6 10 CFG=1
M  V30 10 1 6 11
M  V30 11 1 7 12 CFG=3
M  V30 12 1 7 13
M  V30 13 1 8 14 CFG=3
M  V30 14 1 9 15
M  V30 15 1 10 16
M  V30 16 2 11 17
M  V30 17 2 12 18
M  V30 18 1 13 19 CFG=1
M  V30 19 1 13 20
M  V30 20 1 14 21 CFG=3
M  V30 21 2 15 22
M  V30 22 1 15 23
M  V30 23 2 16 24
M  V30 24 1 16 25
M  V30 25 1 17 26
M  V30 26 1 18 27
M  V30 27 2 20 28
M  V30 28 1 22 29
M  V30 29 2 23 30
M  V30 30 1 26 31 CFG=1
M  V30 31 1 26 32
M  V30 32 1 26 33
M  V30 33 1 27 34
M  V30 34 2 29 35
M  V30 35 1 34 36 CFG=3
M  V30 36 1 35 37
M  V30 37 1 37 38
M  V30 38 1 37 39
M  V30 39 2 38 40
M  V30 40 2 39 41
M  V30 41 1 41 42
M  V30 42 2 42 43
M  V30 43 1 42 44
M  V30 44 1 43 45
M  V30 45 2 44 46
M  V30 46 2 45 47
M  V30 47 1 5 8
M  V30 48 1 14 20
M  V30 49 1 30 35
M  V30 50 1 32 34
M  V30 51 1 40 41
M  V30 52 1 46 47
M  V30 END BOND
M  V30 BEGIN COLLECTION
M  V30 MDLV30/STEABS ATOMS=(9 4 5 6 7 8 13 14 26 34)
M  V30 END COLLECTION
M  V30 END CTAB
M  END
>  <Compound>
4'-(1-(4-phenyltriazolyl)) cytochalasin H

>  <Origin>
Magnaporte grisea
semi-synthesis
mutasynthesis

>  <Reference>
Wang C, Lambert C, Hauser M, Deuschmann A, Zeilinger C, Rottner K, Stradal TEB, Stadler M, Skellam EJ, Cox RJ. Diversely Functionalised Cytochalasins through Mutasynthesis and Semi-Synthesis. Chemistry. 2020 Oct 27;26(60):13578-13583. doi: 10.1002/chem.202002241.

>  <Actin Disruption Activity (1h Treatment)>
++

>  <Reversibilty>
not tested

>  <Box ID>
2C0058

>  <Quantity>
0.19 mg

>  <Cytotoxicity in L929 mouse fibroblasts [µM]>
0.503

>  <Synonyms>
WC 079
compound 5b

>  <Subclass>
Cytochalasin

>  <Molecular Formula>
C39H46N4O4

>  <Total Molweight>
634.818

>  <Smiles>
C[C@@H]([C@@H]([C@H](Cc(cc1)ccc1-[n]1nnc(-c2ccccc2)c1)N1)[C@@]([C@H]([C@@H]2C)/C=C/C[C@H](C)C[C@](C)(/C=C3)O)([C@@H]\3OC(C)=O)C1=O)C2=C

>  <Amino Acid>
Tyrosine derivative
(p-phenyltriazolyl)

>  <Cytotoxicity in L929 mouse Fibroblasts [µg/mL]>
0.32

>  <Cytotoxicity in KB3.1>


>  <Anti-Biofilm>
not tested

$$$$
Compound 14
Actelion Java MolfileCreator 2.0

  0  0  0  0  0  0              0 V3000
M  V30 BEGIN CTAB
M  V30 COUNTS 39 42 0 0 0
M  V30 BEGIN ATOM
M  V30 1 O 0.0 0.0 0.0 0
M  V30 2 C 0.073 1.2661 0.0 0
M  V30 3 N -1.473 1.1565 0.0 0
M  V30 4 C 0.3408 2.7878 0.0 0 CFG=1
M  V30 5 C -2.1548 2.5809 0.0 0 CFG=2
M  V30 6 C 0.2921 1.3269 0.0 0 CFG=2
M  V30 7 C 1.5948 3.5792 0.0 0 CFG=1
M  V30 8 C -1.0104 3.5792 0.0 0 CFG=2
M  V30 9 C -3.6766 2.9461 0.0 0
M  V30 10 O 0.7304 -0.0486 0.0 0
M  V30 11 C 1.5461 0.6087 0.0 0
M  V30 12 C 2.8487 2.8609 0.0 0
M  V30 13 C 1.5461 5.1375 0.0 0 CFG=2
M  V30 14 C -1.0591 5.1375 0.0 0 CFG=1
M  V30 15 C -4.7235 1.887 0.0 0
M  V30 16 C -0.3043 -1.12 0.0 0
M  V30 17 C 2.8 1.4 0.0 0
M  V30 18 C 3.9687 3.8348 0.0 0
M  V30 19 O 2.8 5.9166 0.0 0
M  V30 20 C 0.1947 5.9166 0.0 0
M  V30 21 C -2.4104 5.9166 0.0 0
M  V30 22 C -6.2453 2.2522 0.0 0
M  V30 23 C -4.2974 0.4991 0.0 0
M  V30 24 O -1.8261 -0.7548 0.0 0
M  V30 25 C 0.1339 -2.5078 0.0 0
M  V30 26 C 3.92 0.5234 0.0 0 CFG=2
M  V30 27 C 5.3931 3.5426 0.0 0
M  V30 28 C 0.146 7.4749 0.0 0
M  V30 29 C -7.2923 1.193 0.0 0
M  V30 30 C -5.3444 -0.56 0.0 0
M  V30 31 O 4.6505 -0.8521 0.0 0
M  V30 32 C 5.3444 0.913 0.0 0
M  V30 33 C 2.7148 -0.3774 0.0 0
M  V30 34 C 6.014 2.24 0.0 0 CFG=1
M  V30 35 C -6.8662 -0.1947 0.0 0
M  V30 36 C 7.4749 2.2887 0.0 0
M  V30 37 O -7.9132 -1.2539 0.0 0
M  V30 38 C -9.435 -0.8887 0.0 0
M  V30 39 C -10.5306 -1.9722 0.0 0
M  V30 END ATOM
M  V30 BEGIN BOND
M  V30 1 2 1 2
M  V30 2 1 2 3
M  V30 3 1 4 2 CFG=3
M  V30 4 1 3 5
M  V30 5 1 4 6
M  V30 6 1 4 7
M  V30 7 1 4 8
M  V30 8 1 5 9 CFG=1
M  V30 9 1 6 10 CFG=1
M  V30 10 1 6 11
M  V30 11 1 7 12 CFG=3
M  V30 12 1 7 13
M  V30 13 1 8 14 CFG=3
M  V30 14 1 9 15
M  V30 15 1 10 16
M  V30 16 2 11 17
M  V30 17 2 12 18
M  V30 18 1 13 19 CFG=1
M  V30 19 1 13 20
M  V30 20 1 14 21 CFG=3
M  V30 21 2 15 22
M  V30 22 1 15 23
M  V30 23 2 16 24
M  V30 24 1 16 25
M  V30 25 1 17 26
M  V30 26 1 18 27
M  V30 27 2 20 28
M  V30 28 1 22 29
M  V30 29 2 23 30
M  V30 30 1 26 31 CFG=1
M  V30 31 1 26 32
M  V30 32 1 26 33
M  V30 33 1 27 34
M  V30 34 2 29 35
M  V30 35 1 34 36 CFG=3
M  V30 36 1 35 37
M  V30 37 1 37 38
M  V30 38 2 38 39
M  V30 39 1 5 8
M  V30 40 1 14 20
M  V30 41 1 30 35
M  V30 42 1 32 34
M  V30 END BOND
M  V30 BEGIN COLLECTION
M  V30 MDLV30/STEABS ATOMS=(9 4 5 6 7 8 13 14 26 34)
M  V30 END COLLECTION
M  V30 END CTAB
M  END
>  <Compound>
4'-(O-prop-2-enyl) Cytochalasin H

>  <Origin>
Magnaporte grisea
mutasynthesis

>  <Reference>
Wang C, Lambert C, Hauser M, Deuschmann A, Zeilinger C, Rottner K, Stradal TEB, Stadler M, Skellam EJ, Cox RJ. Diversely Functionalised Cytochalasins through Mutasynthesis and Semi-Synthesis. Chemistry. 2020 Oct 27;26(60):13578-13583. doi: 10.1002/chem.202002241.

>  <Actin Disruption Activity (1h Treatment)>
+++

>  <Reversibilty>
not tested

>  <Box ID>
1C0040

>  <Quantity>
10,71 mg

>  <Cytotoxicity in L929 mouse fibroblasts [µM]>
0.419

>  <Synonyms>
WC127
compound 1f

>  <Subclass>
Cytochalasin

>  <Molecular Formula>
C33H43NO5

>  <Total Molweight>
533.706

>  <Smiles>
C[C@@H]([C@@H]([C@H](Cc(cc1)ccc1OC=C)N1)[C@@]([C@H]([C@@H]2C)/C=C/C[C@H](C)C[C@](C)(/C=C3)O)([C@@H]\3OC(C)=O)C1=O)C2=C

>  <Amino Acid>
Tyrosine derivative
(p-O-prop-2-enyl)

>  <Cytotoxicity in L929 mouse Fibroblasts [µg/mL]>
0.22

>  <Cytotoxicity in KB3.1>


>  <Anti-Biofilm>
not tested

$$$$
Compound 15
Actelion Java MolfileCreator 2.0

  0  0  0  0  0  0              0 V3000
M  V30 BEGIN CTAB
M  V30 COUNTS 39 42 0 0 0
M  V30 BEGIN ATOM
M  V30 1 O 0.0 0.0 0.0 0
M  V30 2 C 0.0844 1.2545 0.0 0
M  V30 3 N -1.4475 1.1339 0.0 0
M  V30 4 C 0.3618 2.7625 0.0 0 CFG=1
M  V30 5 C -2.111 2.5453 0.0 0 CFG=2
M  V30 6 C 0.3257 1.2907 0.0 0 CFG=2
M  V30 7 C 1.6285 3.5466 0.0 0 CFG=1
M  V30 8 C -0.9771 3.5466 0.0 0 CFG=2
M  V30 9 C -3.6189 2.8951 0.0 0
M  V30 10 O 0.772 -0.0965 0.0 0
M  V30 11 C 1.5923 0.5669 0.0 0
M  V30 12 C 2.8951 2.8228 0.0 0
M  V30 13 C 1.5923 5.0907 0.0 0 CFG=2
M  V30 14 C -1.0133 5.0907 0.0 0 CFG=1
M  V30 15 C -4.6564 1.8215 0.0 0
M  V30 16 C -0.2533 -1.1822 0.0 0
M  V30 17 C 2.859 1.351 0.0 0
M  V30 18 C 4.0291 3.7878 0.0 0
M  V30 19 O 2.859 5.8627 0.0 0
M  V30 20 C 0.2533 5.8627 0.0 0
M  V30 21 C -2.3523 5.8627 0.0 0
M  V30 22 C -6.1643 2.1713 0.0 0
M  V30 23 C -4.2221 0.4222 0.0 0
M  V30 24 O -1.7612 -0.8323 0.0 0
M  V30 25 C 0.193 -2.5815 0.0 0
M  V30 26 C 3.9929 0.4584 0.0 0 CFG=2
M  V30 27 C 5.4646 3.4863 0.0 0
M  V30 28 C 0.2171 7.4068 0.0 0
M  V30 29 C -7.2018 1.0977 0.0 0
M  V30 30 C -5.2596 -0.6514 0.0 0
M  V30 31 O 4.7288 -0.9288 0.0 0
M  V30 32 C 5.4284 0.8323 0.0 0
M  V30 33 C 2.7986 -0.4584 0.0 0
M  V30 34 C 6.0919 2.1713 0.0 0 CFG=1
M  V30 35 C -6.7675 -0.3015 0.0 0
M  V30 36 C 7.5637 2.2075 0.0 0
M  V30 37 O -7.8049 -1.3752 0.0 0
M  V30 38 C -9.3128 -1.0253 0.0 0
M  V30 39 C -10.3985 -2.1231 0.0 0
M  V30 END ATOM
M  V30 BEGIN BOND
M  V30 1 2 1 2
M  V30 2 1 2 3
M  V30 3 1 4 2 CFG=3
M  V30 4 1 3 5
M  V30 5 1 4 6
M  V30 6 1 4 7
M  V30 7 1 4 8
M  V30 8 1 5 9 CFG=1
M  V30 9 1 6 10 CFG=1
M  V30 10 1 6 11
M  V30 11 1 7 12 CFG=3
M  V30 12 1 7 13
M  V30 13 1 8 14 CFG=3
M  V30 14 1 9 15
M  V30 15 1 10 16
M  V30 16 2 11 17
M  V30 17 2 12 18
M  V30 18 1 13 19 CFG=1
M  V30 19 1 13 20
M  V30 20 1 14 21 CFG=3
M  V30 21 2 15 22
M  V30 22 1 15 23
M  V30 23 2 16 24
M  V30 24 1 16 25
M  V30 25 1 17 26
M  V30 26 1 18 27
M  V30 27 2 20 28
M  V30 28 1 22 29
M  V30 29 2 23 30
M  V30 30 1 26 31 CFG=1
M  V30 31 1 26 32
M  V30 32 1 26 33
M  V30 33 1 27 34
M  V30 34 2 29 35
M  V30 35 1 34 36 CFG=3
M  V30 36 1 35 37
M  V30 37 1 37 38
M  V30 38 3 38 39
M  V30 39 1 5 8
M  V30 40 1 14 20
M  V30 41 1 30 35
M  V30 42 1 32 34
M  V30 END BOND
M  V30 BEGIN COLLECTION
M  V30 MDLV30/STEABS ATOMS=(9 4 5 6 7 8 13 14 26 34)
M  V30 END COLLECTION
M  V30 END CTAB
M  END
>  <Compound>
4'-(O-propargyl) Cytochalasin H

>  <Origin>
Magnaporthe grisea
mutasynthesis

>  <Reference>
Wang C, Lambert C, Hauser M, Deuschmann A, Zeilinger C, Rottner K, Stradal TEB, Stadler M, Skellam EJ, Cox RJ. Diversely Functionalised Cytochalasins through Mutasynthesis and Semi-Synthesis. Chemistry. 2020 Oct 27;26(60):13578-13583. doi: 10.1002/chem.202002241.

>  <Actin Disruption Activity (1h Treatment)>
+++

>  <Reversibilty>
not tested

>  <Box ID>
not available

>  <Quantity>
not available

>  <Cytotoxicity in L929 mouse fibroblasts [µM]>
0.329

>  <Synonyms>
WC098
compound 1g

>  <Subclass>
Cytochalasin

>  <Molecular Formula>
C33H41NO5

>  <Total Molweight>
531.691

>  <Smiles>
C[C@@H]([C@@H]([C@H](Cc(cc1)ccc1OC#C)N1)[C@@]([C@H]([C@@H]2C)/C=C/C[C@H](C)C[C@](C)(/C=C3)O)([C@@H]\3OC(C)=O)C1=O)C2=C

>  <Amino Acid>
Tyrosine derivative
(p-O-propargyl)

>  <Cytotoxicity in L929 mouse Fibroblasts [µg/mL]>
0.17

>  <Cytotoxicity in KB3.1>


>  <Anti-Biofilm>
not tested

$$$$
Compound 16
Actelion Java MolfileCreator 2.0

  0  0  0  0  0  0              0 V3000
M  V30 BEGIN CTAB
M  V30 COUNTS 72 79 0 0 0
M  V30 BEGIN ATOM
M  V30 1 O 0.0 0.0 0.0 0
M  V30 2 C -0.1425 -1.4072 0.0 0
M  V30 3 N 1.2647 -1.3716 0.0 0
M  V30 4 C -0.4809 -2.9392 0.0 0 CFG=1
M  V30 5 C 1.817 -2.6542 0.0 0 CFG=2
M  V30 6 C -2.2979 -0.6591 0.0 0 CFG=2
M  V30 7 C -1.7635 -3.634 0.0 0 CFG=1
M  V30 8 C 0.7303 -3.634 0.0 0 CFG=2
M  V30 9 C 3.1886 -2.9927 0.0 0
M  V30 10 O -2.3336 0.8194 0.0 0
M  V30 11 C -4.3287 -0.6947 0.0 0
M  V30 12 C -3.0461 -2.868 0.0 0
M  V30 13 C -1.7991 -5.0413 0.0 0 CFG=2
M  V30 14 C 0.6947 -5.0413 0.0 0 CFG=1
M  V30 15 C 4.4 -2.2267 0.0 0
M  V30 16 C -3.6162 1.5854 0.0 0
M  V30 17 C -5.6113 -1.3894 0.0 0
M  V30 18 C -4.3287 -3.5627 0.0 0
M  V30 19 O -2.868 -6.0388 0.0 0
M  V30 20 C -0.5878 -5.736 0.0 0
M  V30 21 C 1.906 -5.736 0.0 0
M  V30 22 C 5.6113 -2.9214 0.0 0
M  V30 23 C 4.3643 -0.7481 0.0 0
M  V30 24 O -3.6518 3.0639 0.0 0
M  V30 25 C -4.8988 0.8906 0.0 0
M  V30 26 C -7.0186 -0.9085 0.0 0 CFG=2
M  V30 27 C -5.6113 -2.7967 0.0 0
M  V30 28 C -0.6234 -7.1433 0.0 0
M  V30 29 C 6.8227 -2.1554 0.0 0
M  V30 30 C 5.5757 0.0178 0.0 0
M  V30 31 O -8.4793 -0.6412 0.0 0
M  V30 32 C -7.9093 -2.0485 0.0 0
M  V30 33 C -7.4996 0.4987 0.0 0
M  V30 34 C -7.0186 -3.2064 0.0 0 CFG=1
M  V30 35 C 6.787 -0.6769 0.0 0
M  V30 36 C -7.4996 -4.5425 0.0 0
M  V30 37 C 8.5684 0.2137 0.0 0
M  V30 38 C 8.5328 1.6923 0.0 0
M  V30 39 C 9.7798 -0.4809 0.0 0
M  V30 40 C 9.7441 2.4583 0.0 0
M  V30 41 C 10.9911 0.285 0.0 0
M  V30 42 C 10.9555 1.7635 0.0 0
M  V30 43 C 12.1668 2.5295 0.0 0
M  V30 44 C 13.5207 2.1911 0.0 0 CFG=2
M  V30 45 N 14.0729 0.9085 0.0 0
M  V30 46 C 14.5717 3.2064 0.0 0 CFG=1
M  V30 47 C 15.4802 0.9441 0.0 0
M  V30 48 C 15.783 2.5117 0.0 0 CFG=2
M  V30 49 C 14.5361 4.685 0.0 0 CFG=1
M  V30 50 O 15.3377 -0.4631 0.0 0
M  V30 51 C 17.5288 0.3028 0.0 0 CFG=2
M  V30 52 C 16.9944 3.2777 0.0 0 CFG=1
M  V30 53 C 15.7474 5.451 0.0 0
M  V30 54 C 13.2535 5.451 0.0 0
M  V30 55 O 17.4932 -1.1044 0.0 0
M  V30 56 C 19.4883 0.4097 0.0 0
M  V30 57 C 18.2057 2.583 0.0 0
M  V30 58 C 16.9587 4.7563 0.0 0 CFG=1
M  V30 59 C 15.7118 6.9295 0.0 0
M  V30 60 C 16.2106 -1.7991 0.0 0
M  V30 61 C 20.6997 1.1757 0.0 0
M  V30 62 C 19.4171 3.349 0.0 0
M  V30 63 O 17.9563 5.8251 0.0 0
M  V30 64 O 14.928 -1.0332 0.0 0
M  V30 65 C 16.1749 -3.2064 0.0 0
M  V30 66 C 22.0357 0.7659 0.0 0 CFG=2
M  V30 67 C 20.6284 2.6542 0.0 0
M  V30 68 O 23.4252 0.57 0.0 0
M  V30 69 C 22.8551 1.9773 0.0 0
M  V30 70 C 22.4454 -0.57 0.0 0
M  V30 71 C 21.9644 3.1352 0.0 0 CFG=1
M  V30 72 C 22.3742 4.5425 0.0 0
M  V30 END ATOM
M  V30 BEGIN BOND
M  V30 1 2 1 2
M  V30 2 1 2 3
M  V30 3 1 4 2 CFG=3
M  V30 4 1 3 5
M  V30 5 1 4 6
M  V30 6 1 4 7
M  V30 7 1 4 8
M  V30 8 1 5 9 CFG=1
M  V30 9 1 6 10 CFG=1
M  V30 10 1 6 11
M  V30 11 1 7 12 CFG=3
M  V30 12 1 7 13
M  V30 13 1 8 14 CFG=3
M  V30 14 1 9 15
M  V30 15 1 10 16
M  V30 16 2 11 17
M  V30 17 2 12 18
M  V30 18 1 13 19 CFG=1
M  V30 19 1 13 20
M  V30 20 1 14 21 CFG=3
M  V30 21 2 15 22
M  V30 22 1 15 23
M  V30 23 2 16 24
M  V30 24 1 16 25
M  V30 25 1 17 26
M  V30 26 1 18 27
M  V30 27 2 20 28
M  V30 28 1 22 29
M  V30 29 2 23 30
M  V30 30 1 26 31 CFG=1
M  V30 31 1 26 32
M  V30 32 1 26 33
M  V30 33 1 27 34
M  V30 34 2 29 35
M  V30 35 1 34 36 CFG=3
M  V30 36 1 35 37
M  V30 37 2 37 38
M  V30 38 1 37 39
M  V30 39 1 38 40
M  V30 40 2 39 41
M  V30 41 2 40 42
M  V30 42 1 42 43
M  V30 43 1 44 43 CFG=1
M  V30 44 1 44 45
M  V30 45 1 44 46
M  V30 46 1 45 47
M  V30 47 1 46 48
M  V30 48 1 46 49 CFG=3
M  V30 49 2 47 50
M  V30 50 1 48 51
M  V30 51 1 48 52
M  V30 52 1 49 53
M  V30 53 1 49 54 CFG=3
M  V30 54 1 51 55 CFG=1
M  V30 55 1 51 56
M  V30 56 1 52 57 CFG=3
M  V30 57 1 52 58
M  V30 58 2 53 59
M  V30 59 1 55 60
M  V30 60 2 56 61
M  V30 61 2 57 62
M  V30 62 1 58 63 CFG=1
M  V30 63 2 60 64
M  V30 64 1 60 65
M  V30 65 1 61 66
M  V30 66 1 62 67
M  V30 67 1 66 68 CFG=1
M  V30 68 1 66 69
M  V30 69 1 66 70
M  V30 70 1 67 71
M  V30 71 1 71 72 CFG=3
M  V30 72 1 5 8
M  V30 73 1 14 20
M  V30 74 1 30 35
M  V30 75 1 32 34
M  V30 76 1 41 42
M  V30 77 1 48 47 CFG=3
M  V30 78 1 53 58
M  V30 79 1 69 71
M  V30 END BOND
M  V30 BEGIN COLLECTION
M  V30 MDLV30/STEABS ATOMS=(18 4 5 6 7 8 13 14 26 34 44 46 48 49 51 52 58 66 71)
M  V30 END COLLECTION
M  V30 END CTAB
M  END
>  <Compound>
4'-4' Cytochalasin H dimer 1

>  <Origin>
Magnaporte grisea
semi-synthetic
mutasynthesis

>  <Reference>
Wang C, Lambert C, Hauser M, Deuschmann A, Zeilinger C, Rottner K, Stradal TEB, Stadler M, Skellam EJ, Cox RJ. Diversely Functionalised Cytochalasins through Mutasynthesis and Semi-Synthesis. Chemistry. 2020 Oct 27;26(60):13578-13583. doi: 10.1002/chem.202002241.

>  <Actin Disruption Activity (1h Treatment)>
+++

>  <Reversibilty>
not tested

>  <Box ID>
2C0053

>  <Quantity>
0.41 mg

>  <Cytotoxicity in L929 mouse fibroblasts [µM]>
8.227

>  <Synonyms>
WC074
compound 24

>  <Subclass>
Cytochalasin

>  <Molecular Formula>
C60H76N2O10

>  <Total Molweight>
985.267

>  <Smiles>
C[C@@H](C([C@H](Cc(cc1)ccc1-c1ccc(C[C@@H](C([C@H](C)C([C@H]([C@@H]2/C=C/C[C@H](C)C[C@](C)(/C=C3)O)O)=C)[C@]22C\3OC(C)=O)NC2=O)cc1)N1)[C@@]([C@H]([C@@H]2O)/C=C/C[C@H](C)C[C@](C)(/C=C3)O)(C\3OC(C)=O)C1=O)C2=C

>  <Amino Acid>
Tyrosine derivative

>  <Cytotoxicity in L929 mouse Fibroblasts [µg/mL]>
8.1

>  <Cytotoxicity in KB3.1>


>  <Anti-Biofilm>
not tested

$$$$
Compound 17
Actelion Java MolfileCreator 2.0

  0  0  0  0  0  0              0 V3000
M  V30 BEGIN CTAB
M  V30 COUNTS 79 87 0 0 0
M  V30 BEGIN ATOM
M  V30 1 O 0.0 0.0 0.0 0
M  V30 2 C -0.1434 -1.4167 0.0 0
M  V30 3 N 1.2732 -1.3808 0.0 0
M  V30 4 C -0.4842 -2.959 0.0 0 CFG=1
M  V30 5 C 1.8292 -2.6721 0.0 0 CFG=2
M  V30 6 C -2.3134 -0.6635 0.0 0 CFG=2
M  V30 7 C -1.7754 -3.6584 0.0 0 CFG=1
M  V30 8 C 0.7352 -3.6584 0.0 0 CFG=2
M  V30 9 C 3.1921 -3.0128 0.0 0
M  V30 10 O -2.3493 0.8249 0.0 0
M  V30 11 C -4.3578 -0.6994 0.0 0
M  V30 12 C -3.0666 -2.8873 0.0 0
M  V30 13 C -1.8113 -5.0752 0.0 0 CFG=2
M  V30 14 C 0.6994 -5.0752 0.0 0 CFG=1
M  V30 15 C 4.4116 -2.2417 0.0 0
M  V30 16 C -3.6405 1.596 0.0 0
M  V30 17 C -5.6491 -1.3988 0.0 0
M  V30 18 C -4.3578 -3.5867 0.0 0
M  V30 19 O -2.8873 -6.0795 0.0 0
M  V30 20 C -0.5918 -5.7746 0.0 0
M  V30 21 C 1.9189 -5.7746 0.0 0
M  V30 22 C 5.6311 -2.9411 0.0 0
M  V30 23 C 4.3758 -0.7532 0.0 0
M  V30 24 O -3.6764 3.0845 0.0 0
M  V30 25 C -4.9317 0.8966 0.0 0
M  V30 26 C -7.0658 -0.9146 0.0 0 CFG=2
M  V30 27 C -5.6491 -2.8155 0.0 0
M  V30 28 C -0.6276 -7.1914 0.0 0
M  V30 29 C 6.8506 -2.1699 0.0 0
M  V30 30 C 5.5953 0.0179 0.0 0
M  V30 31 O -8.5364 -0.6456 0.0 0
M  V30 32 C -7.9625 -2.0623 0.0 0
M  V30 33 C -7.55 0.5021 0.0 0
M  V30 34 C -7.0658 -3.228 0.0 0 CFG=1
M  V30 35 C 6.8148 -0.6814 0.0 0
M  V30 36 C -7.55 -4.573 0.0 0
M  V30 37 O 7.8908 0.3586 0.0 0
M  V30 38 C 9.3075 0.5559 0.0 0
M  V30 39 C 9.8635 1.9189 0.0 0
M  V30 40 N 9.0923 3.2101 0.0 0
M  V30 41 C 11.2623 2.2596 0.0 0
M  V30 42 N 10.0428 4.3399 0.0 0
M  V30 43 N 11.3879 3.7481 0.0 0
M  V30 44 C 12.6073 4.5192 0.0 0
M  V30 45 C 12.5715 6.0077 0.0 0
M  V30 46 C 13.8268 3.8198 0.0 0
M  V30 47 C 13.791 6.7789 0.0 0
M  V30 48 C 15.0463 4.591 0.0 0
M  V30 49 C 15.0105 6.0795 0.0 0
M  V30 50 C 16.23 6.8506 0.0 0
M  V30 51 C 17.5929 6.5099 0.0 0 CFG=2
M  V30 52 N 18.1489 5.2187 0.0 0
M  V30 53 C 18.651 7.5321 0.0 0 CFG=1
M  V30 54 C 19.5656 5.2545 0.0 0
M  V30 55 C 19.8705 6.8327 0.0 0 CFG=2
M  V30 56 C 18.6151 9.0206 0.0 0 CFG=1
M  V30 57 O 19.4221 3.8378 0.0 0
M  V30 58 C 21.628 4.6089 0.0 0 CFG=2
M  V30 59 C 21.09 7.6038 0.0 0 CFG=1
M  V30 60 C 19.8346 9.7918 0.0 0
M  V30 61 C 17.3239 9.7918 0.0 0
M  V30 62 O 21.5921 3.1921 0.0 0
M  V30 63 C 23.6007 4.7165 0.0 0
M  V30 64 C 22.3095 6.9044 0.0 0
M  V30 65 C 21.0541 9.0923 0.0 0 CFG=1
M  V30 66 C 19.7988 11.2802 0.0 0
M  V30 67 C 20.3009 2.4927 0.0 0
M  V30 68 C 24.8202 5.4877 0.0 0
M  V30 69 C 23.529 7.6756 0.0 0
M  V30 70 O 22.0584 10.1684 0.0 0
M  V30 71 O 19.0097 3.2639 0.0 0
M  V30 72 C 20.265 1.076 0.0 0
M  V30 73 C 26.1652 5.0752 0.0 0 CFG=2
M  V30 74 C 24.7485 6.9762 0.0 0
M  V30 75 O 27.564 4.8779 0.0 0
M  V30 76 C 26.9902 6.2947 0.0 0
M  V30 77 C 26.5777 3.7302 0.0 0
M  V30 78 C 26.0935 7.4604 0.0 0 CFG=1
M  V30 79 C 26.506 8.8771 0.0 0
M  V30 END ATOM
M  V30 BEGIN BOND
M  V30 1 2 1 2
M  V30 2 1 2 3
M  V30 3 1 4 2 CFG=3
M  V30 4 1 3 5
M  V30 5 1 4 6
M  V30 6 1 4 7
M  V30 7 1 4 8
M  V30 8 1 5 9 CFG=1
M  V30 9 1 6 10 CFG=1
M  V30 10 1 6 11
M  V30 11 1 7 12 CFG=3
M  V30 12 1 7 13
M  V30 13 1 8 14 CFG=3
M  V30 14 1 9 15
M  V30 15 1 10 16
M  V30 16 2 11 17
M  V30 17 2 12 18
M  V30 18 1 13 19 CFG=1
M  V30 19 1 13 20
M  V30 20 1 14 21 CFG=3
M  V30 21 2 15 22
M  V30 22 1 15 23
M  V30 23 2 16 24
M  V30 24 1 16 25
M  V30 25 1 17 26
M  V30 26 1 18 27
M  V30 27 2 20 28
M  V30 28 1 22 29
M  V30 29 2 23 30
M  V30 30 1 26 31 CFG=1
M  V30 31 1 26 32
M  V30 32 1 26 33
M  V30 33 1 27 34
M  V30 34 2 29 35
M  V30 35 1 34 36 CFG=3
M  V30 36 1 35 37
M  V30 37 1 37 38
M  V30 38 1 38 39
M  V30 39 1 39 40
M  V30 40 2 39 41
M  V30 41 2 40 42
M  V30 42 1 41 43
M  V30 43 1 43 44
M  V30 44 2 44 45
M  V30 45 1 44 46
M  V30 46 1 45 47
M  V30 47 2 46 48
M  V30 48 2 47 49
M  V30 49 1 49 50
M  V30 50 1 51 50 CFG=1
M  V30 51 1 51 52
M  V30 52 1 51 53
M  V30 53 1 52 54
M  V30 54 1 53 55
M  V30 55 1 53 56 CFG=3
M  V30 56 2 54 57
M  V30 57 1 55 58
M  V30 58 1 55 59
M  V30 59 1 56 60
M  V30 60 1 56 61 CFG=3
M  V30 61 1 58 62 CFG=1
M  V30 62 1 58 63
M  V30 63 1 59 64 CFG=3
M  V30 64 1 59 65
M  V30 65 2 60 66
M  V30 66 1 62 67
M  V30 67 2 63 68
M  V30 68 2 64 69
M  V30 69 1 65 70 CFG=1
M  V30 70 2 67 71
M  V30 71 1 67 72
M  V30 72 1 68 73
M  V30 73 1 69 74
M  V30 74 1 73 75 CFG=1
M  V30 75 1 73 76
M  V30 76 1 73 77
M  V30 77 1 74 78
M  V30 78 1 78 79 CFG=3
M  V30 79 1 5 8
M  V30 80 1 14 20
M  V30 81 1 30 35
M  V30 82 1 32 34
M  V30 83 1 42 43
M  V30 84 1 48 49
M  V30 85 1 55 54 CFG=3
M  V30 86 1 60 65
M  V30 87 1 76 78
M  V30 END BOND
M  V30 BEGIN COLLECTION
M  V30 MDLV30/STEABS ATOMS=(18 4 5 6 7 8 13 14 26 34 51 53 55 56 58 59 65 73 78)
M  V30 END COLLECTION
M  V30 END CTAB
M  END
>  <Compound>
4'-4' Cytochalasin H dimer 2

>  <Origin>
Magnaporte grisea
semi-synthetic
mutasynthesis

>  <Reference>
Wang C, Lambert C, Hauser M, Deuschmann A, Zeilinger C, Rottner K, Stradal TEB, Stadler M, Skellam EJ, Cox RJ. Diversely Functionalised Cytochalasins through Mutasynthesis and Semi-Synthesis. Chemistry. 2020 Oct 27;26(60):13578-13583. doi: 10.1002/chem.20

>  <Actin Disruption Activity (1h Treatment)>
++

>  <Reversibilty>
not tested

>  <Box ID>
2C0057

>  <Quantity>
0.23 mg

>  <Cytotoxicity in L929 mouse fibroblasts [µM]>
1.664 

>  <Synonyms>
WC119
compound 25

>  <Subclass>
Cytochalasin

>  <Molecular Formula>
C63H79N5O11

>  <Total Molweight>
1082.34

>  <Smiles>
C[C@@H](C([C@H](Cc(cc1)ccc1-[n]1nnc(COc2ccc(C[C@@H](C([C@H](C)C([C@H]([C@@H]3/C=C/C[C@H](C)C[C@](C)(/C=C4)O)O)=C)[C@]33C\4OC(C)=O)NC3=O)cc2)c1)N1)[C@@]([C@H]([C@@H]2O)/C=C/C[C@H](C)C[C@](C)(/C=C3)O)(C\3OC(C)=O)C1=O)C2=C

>  <Amino Acid>
Tyrosine derivative

>  <Cytotoxicity in L929 mouse Fibroblasts [µg/mL]>
1.8

>  <Cytotoxicity in KB3.1>


>  <Anti-Biofilm>
not tested

$$$$
Compound 18
Actelion Java MolfileCreator 2.0

  0  0  0  0  0  0              0 V3000
M  V30 BEGIN CTAB
M  V30 COUNTS 94 103 0 0 0
M  V30 BEGIN ATOM
M  V30 1 O 0.0 0.0 0.0 0
M  V30 2 C 0.0174 1.4446 0.0 0
M  V30 3 N -1.4272 1.5317 0.0 0
M  V30 4 C 0.2262 3.0112 0.0 0 CFG=1
M  V30 5 C -2.0887 2.8545 0.0 0 CFG=2
M  V30 6 C 1.8276 0.9573 0.0 0 CFG=2
M  V30 7 C 1.3054 3.8119 0.0 0 CFG=1
M  V30 8 C -1.0269 3.8119 0.0 0 CFG=2
M  V30 9 C -3.4811 3.3071 0.0 0
M  V30 10 O 1.7405 -0.3133 0.0 0
M  V30 11 C 3.6378 1.1139 0.0 0
M  V30 12 C 2.3846 3.1852 0.0 0
M  V30 13 C 1.2184 5.2565 0.0 0 CFG=2
M  V30 14 C -1.1139 5.2565 0.0 0 CFG=1
M  V30 15 C -4.7344 2.6805 0.0 0
M  V30 16 C 0.4873 -0.9399 0.0 0
M  V30 17 C 4.717 1.9146 0.0 0
M  V30 18 C 3.4637 3.9859 0.0 0
M  V30 19 O 2.1409 6.3531 0.0 0
M  V30 20 C -0.0348 6.0572 0.0 0
M  V30 21 C -2.3672 6.0572 0.0 0
M  V30 22 C -5.9876 3.4811 0.0 0
M  V30 23 C -4.8214 1.4098 0.0 0
M  V30 24 O -0.7658 -0.1392 0.0 0
M  V30 25 C 0.4003 -2.2105 0.0 0
M  V30 26 C 5.918 1.5665 0.0 0 CFG=2
M  V30 27 C 4.5603 3.3593 0.0 0
M  V30 28 C -0.1218 7.5019 0.0 0
M  V30 29 C -7.2408 2.8545 0.0 0
M  V30 30 C -6.0746 0.7832 0.0 0
M  V30 31 O 7.1712 1.4272 0.0 0
M  V30 32 C 6.6664 2.7501 0.0 0
M  V30 33 C 6.2661 0.3655 0.0 0
M  V30 34 C 5.7613 3.8815 0.0 0 CFG=1
M  V30 35 C -7.3279 1.5839 0.0 0
M  V30 36 C 6.1094 5.2565 0.0 0
M  V30 37 N -8.5811 0.9573 0.0 0
M  V30 38 N -9.9039 1.6187 0.0 0
M  V30 39 C -8.8248 -0.3133 0.0 0
M  V30 40 N -10.9483 0.644 0.0 0
M  V30 41 C -10.2521 -0.5221 0.0 0
M  V30 42 C -11.0179 -2.2279 0.0 0
M  V30 43 O -12.9848 -2.4716 0.0 0
M  V30 44 C -13.7507 -4.1774 0.0 0
M  V30 45 C -15.7175 -4.4211 0.0 0
M  V30 46 O -16.4834 -6.1268 0.0 0
M  V30 47 C -18.4503 -6.3705 0.0 0
M  V30 48 C -19.2161 -8.0763 0.0 0
M  V30 49 O -21.183 -8.32 0.0 0
M  V30 50 C -21.9489 -10.0258 0.0 0
M  V30 51 C -23.9157 -10.2695 0.0 0
M  V30 52 O -24.6816 -11.9752 0.0 0
M  V30 53 C -26.6485 -12.2189 0.0 0
M  V30 54 C -27.3969 -13.8377 0.0 0
M  V30 55 N -26.7703 -14.9169 0.0 0
M  V30 56 C -28.8242 -14.0466 0.0 0
M  V30 57 N -27.8147 -15.8916 0.0 0
M  V30 58 N -29.0679 -15.3172 0.0 0
M  V30 59 C -30.3211 -15.9438 0.0 0
M  V30 60 C -30.4082 -17.2144 0.0 0
M  V30 61 C -31.5744 -15.1431 0.0 0
M  V30 62 C -31.6614 -17.8411 0.0 0
M  V30 63 C -32.8276 -15.7697 0.0 0
M  V30 64 C -32.9146 -17.0404 0.0 0
M  V30 65 C -34.1678 -17.667 0.0 0
M  V30 66 C -35.5603 -17.2144 0.0 0 CFG=2
M  V30 67 N -36.2217 -15.8916 0.0 0
M  V30 68 C -36.6917 -18.0847 0.0 0 CFG=1
M  V30 69 C -37.6664 -15.8046 0.0 0
M  V30 70 C -37.9449 -17.2841 0.0 0 CFG=2
M  V30 71 C -36.7787 -19.3554 0.0 0 CFG=1
M  V30 72 O -37.649 -14.3599 0.0 0
M  V30 73 C -39.7203 -15.0561 0.0 0 CFG=2
M  V30 74 C -39.1982 -17.9107 0.0 0 CFG=1
M  V30 75 C -38.032 -19.982 0.0 0
M  V30 76 C -35.6996 -19.982 0.0 0
M  V30 77 O -39.8074 -13.6114 0.0 0
M  V30 78 C -41.7046 -15.0387 0.0 0
M  V30 79 C -40.4514 -17.11 0.0 0
M  V30 80 C -39.2852 -19.1813 0.0 0 CFG=1
M  V30 81 C -38.119 -21.2526 0.0 0
M  V30 82 C -41.0606 -12.8107 0.0 0
M  V30 83 C -42.9579 -15.6653 0.0 0
M  V30 84 C -41.7046 -17.7366 0.0 0
M  V30 85 O -40.3818 -20.1038 0.0 0
M  V30 86 O -41.1476 -11.366 0.0 0
M  V30 87 C -42.3138 -13.4373 0.0 0
M  V30 88 C -44.3329 -15.1431 0.0 0 CFG=2
M  V30 89 C -42.9579 -16.9359 0.0 0
M  V30 90 O -45.7602 -14.8298 0.0 0
M  V30 91 C -45.2554 -16.2049 0.0 0
M  V30 92 C -44.8551 -13.7681 0.0 0
M  V30 93 C -44.3329 -17.2841 0.0 0 CFG=1
M  V30 94 C -44.8551 -18.4851 0.0 0
M  V30 END ATOM
M  V30 BEGIN BOND
M  V30 1 2 1 2
M  V30 2 1 2 3
M  V30 3 1 4 2 CFG=3
M  V30 4 1 3 5
M  V30 5 1 4 6
M  V30 6 1 4 7
M  V30 7 1 4 8
M  V30 8 1 5 9 CFG=1
M  V30 9 1 6 10 CFG=1
M  V30 10 1 6 11
M  V30 11 1 7 12 CFG=3
M  V30 12 1 7 13
M  V30 13 1 8 14 CFG=3
M  V30 14 1 9 15
M  V30 15 1 10 16
M  V30 16 2 11 17
M  V30 17 2 12 18
M  V30 18 1 13 19 CFG=1
M  V30 19 1 13 20
M  V30 20 1 14 21 CFG=3
M  V30 21 2 15 22
M  V30 22 1 15 23
M  V30 23 2 16 24
M  V30 24 1 16 25
M  V30 25 1 17 26
M  V30 26 1 18 27
M  V30 27 2 20 28
M  V30 28 1 22 29
M  V30 29 2 23 30
M  V30 30 1 26 31 CFG=1
M  V30 31 1 26 32
M  V30 32 1 26 33
M  V30 33 1 27 34
M  V30 34 2 29 35
M  V30 35 1 34 36 CFG=3
M  V30 36 1 35 37
M  V30 37 1 37 38
M  V30 38 1 37 39
M  V30 39 2 38 40
M  V30 40 2 39 41
M  V30 41 1 41 42
M  V30 42 1 42 43
M  V30 43 1 43 44
M  V30 44 1 44 45
M  V30 45 1 45 46
M  V30 46 1 46 47
M  V30 47 1 47 48
M  V30 48 1 48 49
M  V30 49 1 49 50
M  V30 50 1 50 51
M  V30 51 1 51 52
M  V30 52 1 52 53
M  V30 53 1 53 54
M  V30 54 1 54 55
M  V30 55 2 54 56
M  V30 56 2 55 57
M  V30 57 1 56 58
M  V30 58 1 58 59
M  V30 59 2 59 60
M  V30 60 1 59 61
M  V30 61 1 60 62
M  V30 62 2 61 63
M  V30 63 2 62 64
M  V30 64 1 64 65
M  V30 65 1 66 65 CFG=1
M  V30 66 1 66 67
M  V30 67 1 66 68
M  V30 68 1 67 69
M  V30 69 1 68 70
M  V30 70 1 68 71 CFG=3
M  V30 71 2 69 72
M  V30 72 1 70 73
M  V30 73 1 70 74
M  V30 74 1 71 75
M  V30 75 1 71 76 CFG=3
M  V30 76 1 73 77 CFG=1
M  V30 77 1 73 78
M  V30 78 1 74 79 CFG=3
M  V30 79 1 74 80
M  V30 80 2 75 81
M  V30 81 1 77 82
M  V30 82 2 78 83
M  V30 83 2 79 84
M  V30 84 1 80 85 CFG=1
M  V30 85 2 82 86
M  V30 86 1 82 87
M  V30 87 1 83 88
M  V30 88 1 84 89
M  V30 89 1 88 90 CFG=1
M  V30 90 1 88 91
M  V30 91 1 88 92
M  V30 92 1 89 93
M  V30 93 1 93 94 CFG=3
M  V30 94 1 5 8
M  V30 95 1 14 20
M  V30 96 1 30 35
M  V30 97 1 32 34
M  V30 98 1 40 41
M  V30 99 1 57 58
M  V30 100 1 63 64
M  V30 101 1 70 69 CFG=3
M  V30 102 1 75 80
M  V30 103 1 91 93
M  V30 END BOND
M  V30 BEGIN COLLECTION
M  V30 MDLV30/STEABS ATOMS=(18 4 5 6 7 8 13 14 26 34 66 68 70 71 73 74 80 88 93)
M  V30 END COLLECTION
M  V30 END CTAB
M  END
>  <Compound>
4'-4' Cytochalasin H dimer 3

>  <Origin>
Magnaporte grisea
semi-synthetic
mutasynthesis

>  <Reference>
Wang C, Lambert C, Hauser M, Deuschmann A, Zeilinger C, Rottner K, Stradal TEB, Stadler M, Skellam EJ, Cox RJ. Diversely Functionalised Cytochalasins through Mutasynthesis and Semi-Synthesis. Chemistry. 2020 Oct 27;26(60):13578-13583. doi: 10.1002/chem.202002241.

>  <Actin Disruption Activity (1h Treatment)>
++

>  <Reversibilty>
not tested

>  <Box ID>
1C0043

>  <Quantity>
3.47 mg

>  <Cytotoxicity in L929 mouse fibroblasts [µM]>
no inhibition

>  <Synonyms>
WC134
compound 27

>  <Subclass>
Cytochalasin

>  <Molecular Formula>
C72H94N8O14

>  <Total Molweight>
1295.58

>  <Smiles>
C[C@@H](C([C@H](Cc(cc1)ccc1-[n]1nnc(COCCOCCOCCOCc2c[n](-c3ccc(C[C@@H](C([C@H](C)C([C@H]([C@@H]4/C=C/C[C@H](C)C[C@](C)(/C=C5)O)O)=C)[C@]44C\5OC(C)=O)NC4=O)cc3)nn2)c1)N1)[C@@]([C@H]([C@@H]2O)/C=C/C[C@H](C)C[C@](C)(/C=C3)O)(C\3OC(C)=O)C1=O)C2=C

>  <Amino Acid>
Tyrosine derivative

>  <Cytotoxicity in L929 mouse Fibroblasts [µg/mL]>
no inhibition

>  <Cytotoxicity in KB3.1>


>  <Anti-Biofilm>
not tested

$$$$
Compound 19
Actelion Java MolfileCreator 2.0

  0  0  0  0  0  0              0 V3000
M  V30 BEGIN CTAB
M  V30 COUNTS 78 86 0 0 0
M  V30 BEGIN ATOM
M  V30 1 S 0.0 0.0 0.0 0
M  V30 2 O 1.3198 -0.9204 0.0 0
M  V30 3 O -1.7366 0.6425 0.0 0
M  V30 4 O -0.5731 -1.8409 0.0 0
M  V30 5 C 0.521 1.3893 0.0 0
M  V30 6 C -0.3647 2.6397 0.0 0
M  V30 7 C 1.9277 1.5977 0.0 0
M  V30 8 O -1.8756 2.5355 0.0 0
M  V30 9 C 0.1563 4.0291 0.0 0
M  V30 10 N 2.7092 0.4515 0.0 0
M  V30 11 C 2.4487 2.9871 0.0 0
M  V30 12 C -2.7613 3.786 0.0 0
M  V30 13 C -0.7294 5.2795 0.0 0
M  V30 14 C 1.563 4.2375 0.0 0
M  V30 15 C -4.2722 3.6818 0.0 0
M  V30 16 C -2.2403 5.1753 0.0 0
M  V30 17 C -0.2084 6.6689 0.0 0
M  V30 18 S -4.8974 2.3966 0.0 0
M  V30 19 C -5.1579 4.9322 0.0 0
M  V30 20 C -3.126 6.4257 0.0 0
M  V30 21 C -1.0941 7.9193 0.0 0
M  V30 22 C 1.1983 6.8773 0.0 0
M  V30 23 O -6.3736 2.796 0.0 0
M  V30 24 O -3.5254 2.1014 0.0 0
M  V30 25 O -5.0537 0.8336 0.0 0 CHG=-1
M  V30 26 N -6.6689 4.828 0.0 0 CHG=1
M  V30 27 C -4.6369 6.3215 0.0 0
M  V30 28 C -2.605 7.8151 0.0 0
M  V30 29 C -0.5731 9.3087 0.0 0
M  V30 30 C 1.7193 8.2666 0.0 0
M  V30 31 O -4.4459 7.9193 0.0 0
M  V30 32 O -3.4907 9.0655 0.0 0
M  V30 33 C 0.8336 9.5171 0.0 0
M  V30 34 C 3.126 8.475 0.0 0
M  V30 35 O 3.9075 7.3288 0.0 0
M  V30 36 N 3.647 9.8644 0.0 0
M  V30 37 C 5.0537 10.0728 0.0 0
M  V30 38 C 5.5748 11.4622 0.0 0
M  V30 39 N 4.8106 12.7821 0.0 0
M  V30 40 C 6.9467 11.8095 0.0 0
M  V30 41 N 5.7137 13.8935 0.0 0
M  V30 42 N 7.0509 13.3204 0.0 0
M  V30 43 C 8.2666 14.0846 0.0 0
M  V30 44 C 8.2145 15.5955 0.0 0
M  V30 45 C 9.4823 13.4246 0.0 0
M  V30 46 C 9.4302 16.3597 0.0 0
M  V30 47 C 10.698 14.1888 0.0 0
M  V30 48 C 10.6459 15.6997 0.0 0
M  V30 49 C 11.8616 16.4639 0.0 0
M  V30 50 C 13.2336 16.1513 0.0 0 CFG=2
M  V30 51 N 13.7546 14.8661 0.0 0
M  V30 52 C 14.2409 17.1585 0.0 0 CFG=1
M  V30 53 C 15.1613 14.9182 0.0 0
M  V30 54 C 15.4566 16.4986 0.0 0 CFG=2
M  V30 55 C 14.1888 18.6695 0.0 0 CFG=1
M  V30 56 O 15.005 13.5115 0.0 0
M  V30 57 C 17.1933 14.3104 0.0 0 CFG=2
M  V30 58 C 16.6723 17.2627 0.0 0 CFG=1
M  V30 59 C 15.4045 19.4336 0.0 0
M  V30 60 C 12.8689 19.4336 0.0 0
M  V30 61 O 17.1412 12.9036 0.0 0
M  V30 62 C 19.1384 14.4319 0.0 0
M  V30 63 C 17.888 16.6028 0.0 0
M  V30 64 C 16.6202 18.7737 0.0 0 CFG=1
M  V30 65 C 15.3524 20.9445 0.0 0
M  V30 66 C 15.8213 12.2437 0.0 0
M  V30 67 C 20.3541 15.1961 0.0 0
M  V30 68 C 19.1036 17.3669 0.0 0
M  V30 69 O 17.5753 19.8331 0.0 0
M  V30 70 O 14.5014 13.0078 0.0 0
M  V30 71 C 15.7692 10.837 0.0 0
M  V30 72 C 21.6913 14.814 0.0 0 CFG=2
M  V30 73 C 20.3193 16.707 0.0 0
M  V30 74 O 23.0807 14.6403 0.0 0
M  V30 75 C 22.4728 16.0644 0.0 0
M  V30 76 C 22.0734 13.4767 0.0 0
M  V30 77 C 21.6566 17.1933 0.0 0 CFG=1
M  V30 78 C 22.0387 18.6347 0.0 0
M  V30 END ATOM
M  V30 BEGIN BOND
M  V30 1 2 1 2
M  V30 2 2 1 3
M  V30 3 1 1 4
M  V30 4 1 1 5
M  V30 5 2 5 6
M  V30 6 1 5 7
M  V30 7 1 6 8
M  V30 8 1 6 9
M  V30 9 1 7 10
M  V30 10 2 7 11
M  V30 11 1 8 12
M  V30 12 1 9 13
M  V30 13 2 9 14
M  V30 14 2 12 15
M  V30 15 1 12 16
M  V30 16 1 13 17
M  V30 17 1 15 18
M  V30 18 1 15 19
M  V30 19 1 16 20
M  V30 20 2 17 21
M  V30 21 1 17 22
M  V30 22 2 18 23
M  V30 23 2 18 24
M  V30 24 1 18 25
M  V30 25 2 19 26
M  V30 26 1 19 27
M  V30 27 1 21 28
M  V30 28 1 21 29
M  V30 29 2 22 30
M  V30 30 2 28 31
M  V30 31 1 28 32
M  V30 32 2 29 33
M  V30 33 1 30 34
M  V30 34 2 34 35
M  V30 35 1 34 36
M  V30 36 1 36 37
M  V30 37 1 37 38
M  V30 38 1 38 39
M  V30 39 2 38 40
M  V30 40 2 39 41
M  V30 41 1 40 42
M  V30 42 1 42 43
M  V30 43 2 43 44
M  V30 44 1 43 45
M  V30 45 1 44 46
M  V30 46 2 45 47
M  V30 47 2 46 48
M  V30 48 1 48 49
M  V30 49 1 50 49 CFG=1
M  V30 50 1 50 51
M  V30 51 1 50 52
M  V30 52 1 51 53
M  V30 53 1 52 54
M  V30 54 1 52 55 CFG=3
M  V30 55 2 53 56
M  V30 56 1 54 57
M  V30 57 1 54 58
M  V30 58 1 55 59
M  V30 59 1 55 60 CFG=3
M  V30 60 1 57 61 CFG=1
M  V30 61 1 57 62
M  V30 62 1 58 63 CFG=3
M  V30 63 1 58 64
M  V30 64 2 59 65
M  V30 65 1 61 66
M  V30 66 2 62 67
M  V30 67 2 63 68
M  V30 68 1 64 69 CFG=1
M  V30 69 2 66 70
M  V30 70 1 66 71
M  V30 71 1 67 72
M  V30 72 1 68 73
M  V30 73 1 72 74 CFG=1
M  V30 74 1 72 75
M  V30 75 1 72 76
M  V30 76 1 73 77
M  V30 77 1 77 78 CFG=3
M  V30 78 1 11 14
M  V30 79 2 13 16
M  V30 80 2 20 27
M  V30 81 1 30 33
M  V30 82 1 41 42
M  V30 83 1 47 48
M  V30 84 1 54 53 CFG=3
M  V30 85 1 59 64
M  V30 86 1 75 77
M  V30 END BOND
M  V30 BEGIN COLLECTION
M  V30 MDLV30/STEABS ATOMS=(9 50 52 54 55 57 58 64 72 77)
M  V30 END COLLECTION
M  V30 END CTAB
M  END
>  <Compound>
4'-AlexaFluor488-linked cytochalasin H

>  <Origin>
Magnaporthe grisea
semi-synthetic

>  <Reference>
Wang C, Lambert C, Hauser M, Deuschmann A, Zeilinger C, Rottner K, Stradal TEB, Stadler M, Skellam EJ, Cox RJ. Diversely Functionalised Cytochalasins through Mutasynthesis and Semi-Synthesis. Chemistry. 2020 Oct 27;26(60):13578-13583. doi: 10.1002/chem.202002241.

>  <Actin Disruption Activity (1h Treatment)>
+

>  <Reversibilty>
not tested

>  <Box ID>
1C0045

>  <Quantity>
1.59 mg

>  <Cytotoxicity in L929 mouse fibroblasts [µM]>
27.14 

>  <Synonyms>
WC129
compound 19

>  <Subclass>
Cytochalasin

>  <Molecular Formula>
C54H55N7O15S2

>  <Total Molweight>
1106.2

>  <Smiles>
C[C@@H](C([C@H](Cc(cc1)ccc1-[n]1nnc(CNC(c(cc2)cc(C(c(c(O3)c4S(O)(=O)=O)ccc4N)=C(C=CC4=[NH2+])C3=C4S([O-])(=O)=O)c2C(O)=O)=O)c1)N1)[C@@]([C@H]([C@@H]2O)/C=C/C[C@H](C)C[C@](C)(/C=C3)O)(C\3OC(C)=O)C1=O)C2=C

>  <Amino Acid>
Tyrosine derivative

>  <Cytotoxicity in L929 mouse Fibroblasts [µg/mL]>
30

>  <Cytotoxicity in KB3.1>


>  <Anti-Biofilm>
not tested

$$$$
Compound 20
Actelion Java MolfileCreator 2.0

  0  0  0  0  0  0              0 V3000
M  V30 BEGIN CTAB
M  V30 COUNTS 37 40 0 0 0
M  V30 BEGIN ATOM
M  V30 1 O 0.0 0.0 0.0 0
M  V30 2 C 0.0845 1.256 0.0 0
M  V30 3 N -1.4493 1.1353 0.0 0
M  V30 4 C 0.3623 2.7658 0.0 0 CFG=1
M  V30 5 C -2.1136 2.5484 0.0 0 CFG=2
M  V30 6 C 0.3261 1.2923 0.0 0 CFG=2
M  V30 7 C 1.6305 3.5508 0.0 0 CFG=1
M  V30 8 C -0.9783 3.5508 0.0 0 CFG=2
M  V30 9 C -3.6233 2.8986 0.0 0
M  V30 10 O 0.7729 -0.0966 0.0 0
M  V30 11 C 1.5942 0.5676 0.0 0
M  V30 12 C 2.8986 2.8141 0.0 0
M  V30 13 C 1.5942 5.0968 0.0 0 CFG=2
M  V30 14 C -1.0145 5.0968 0.0 0 CFG=1
M  V30 15 C -4.662 1.8237 0.0 0
M  V30 16 C -0.2536 -1.1836 0.0 0
M  V30 17 C 2.8624 1.3527 0.0 0
M  V30 18 C 4.0339 3.7803 0.0 0
M  V30 19 O 2.8624 5.8818 0.0 0
M  V30 20 C 0.2536 5.8818 0.0 0
M  V30 21 C -2.3551 5.8818 0.0 0
M  V30 22 C -6.1717 2.174 0.0 0
M  V30 23 C -4.2272 0.4227 0.0 0
M  V30 24 O -1.7633 -0.8333 0.0 0
M  V30 25 C 0.1932 -2.5846 0.0 0
M  V30 26 C 3.9977 0.4589 0.0 0 CFG=2
M  V30 27 C 5.4712 3.4784 0.0 0
M  V30 28 C 0.2174 7.4278 0.0 0
M  V30 29 C -7.2104 1.099 0.0 0
M  V30 30 C -5.2659 -0.6522 0.0 0
M  V30 31 O 4.7345 -0.9299 0.0 0
M  V30 32 C 5.435 0.8333 0.0 0
M  V30 33 C 2.802 -0.4589 0.0 0
M  V30 34 C 6.0992 2.1619 0.0 0 CFG=1
M  V30 35 C -6.7756 -0.3019 0.0 0
M  V30 36 C 7.5727 2.1981 0.0 0
M  V30 37 N -7.8143 -1.3768 0.0 0
M  V30 END ATOM
M  V30 BEGIN BOND
M  V30 1 2 1 2
M  V30 2 1 2 3
M  V30 3 1 4 2 CFG=3
M  V30 4 1 3 5
M  V30 5 1 4 6
M  V30 6 1 4 7
M  V30 7 1 4 8
M  V30 8 1 5 9 CFG=1
M  V30 9 1 6 10 CFG=1
M  V30 10 1 6 11
M  V30 11 1 7 12 CFG=3
M  V30 12 1 7 13
M  V30 13 1 8 14 CFG=3
M  V30 14 1 9 15
M  V30 15 1 10 16
M  V30 16 2 11 17
M  V30 17 2 12 18
M  V30 18 1 13 19 CFG=1
M  V30 19 1 13 20
M  V30 20 1 14 21 CFG=3
M  V30 21 2 15 22
M  V30 22 1 15 23
M  V30 23 2 16 24
M  V30 24 1 16 25
M  V30 25 1 17 26
M  V30 26 1 18 27
M  V30 27 2 20 28
M  V30 28 1 22 29
M  V30 29 2 23 30
M  V30 30 1 26 31 CFG=1
M  V30 31 1 26 32
M  V30 32 1 26 33
M  V30 33 1 27 34
M  V30 34 2 29 35
M  V30 35 1 34 36 CFG=3
M  V30 36 1 35 37
M  V30 37 1 5 8
M  V30 38 1 14 20
M  V30 39 1 30 35
M  V30 40 1 32 34
M  V30 END BOND
M  V30 BEGIN COLLECTION
M  V30 MDLV30/STEABS ATOMS=(9 4 5 6 7 8 13 14 26 34)
M  V30 END COLLECTION
M  V30 END CTAB
M  END
>  <Compound>
4'-Amino cytochalasin H

>  <Origin>
Magnaporte grisea
mutasynthesis

>  <Reference>
Wang C, Lambert C, Hauser M, Deuschmann A, Zeilinger C, Rottner K, Stradal TEB, Stadler M, Skellam EJ, Cox RJ. Diversely Functionalised Cytochalasins through Mutasynthesis and Semi-Synthesis. Chemistry. 2020 Oct 27;26(60):13578-13583. doi: 10.1002/chem.202002241.

>  <Actin Disruption Activity (1h Treatment)>
++

>  <Reversibilty>
not tested

>  <Box ID>
2C0055

>  <Quantity>
0.78 mg

>  <Cytotoxicity in L929 mouse fibroblasts [µM]>
2.3601

>  <Synonyms>
WC078
Compound 1i

>  <Subclass>
Cytochalasin

>  <Molecular Formula>
C31H42N2O4

>  <Total Molweight>
506.684

>  <Smiles>
C[C@@H]([C@@H]([C@H](Cc(cc1)ccc1N)N1)[C@@]([C@H]([C@@H]2C)/C=C/C[C@H](C)C[C@](C)(/C=C3)O)([C@@H]\3OC(C)=O)C1=O)C2=C

>  <Amino Acid>
Tyrosine derivative
(p-amino)

>  <Cytotoxicity in L929 mouse Fibroblasts [µg/mL]>
1.2

>  <Cytotoxicity in KB3.1>


>  <Anti-Biofilm>
not tested

$$$$
Compound 21
Actelion Java MolfileCreator 2.0

  0  0  0  0  0  0              0 V3000
M  V30 BEGIN CTAB
M  V30 COUNTS 39 42 0 0 0
M  V30 BEGIN ATOM
M  V30 1 O 0.0 0.0 0.0 0
M  V30 2 C 0.0844 1.2551 0.0 0
M  V30 3 N -1.4482 1.1344 0.0 0
M  V30 4 C 0.362 2.7636 0.0 0 CFG=1
M  V30 5 C -2.1119 2.5464 0.0 0 CFG=2
M  V30 6 C 0.3258 1.2913 0.0 0 CFG=2
M  V30 7 C 1.6292 3.5481 0.0 0 CFG=1
M  V30 8 C -0.9775 3.5481 0.0 0 CFG=2
M  V30 9 C -3.6205 2.8964 0.0 0
M  V30 10 O 0.7723 -0.0965 0.0 0
M  V30 11 C 1.593 0.5672 0.0 0
M  V30 12 C 2.8964 2.8119 0.0 0
M  V30 13 C 1.593 5.0928 0.0 0 CFG=2
M  V30 14 C -1.0137 5.0928 0.0 0 CFG=1
M  V30 15 C -4.6584 1.8223 0.0 0
M  V30 16 C -0.2534 -1.1827 0.0 0
M  V30 17 C 2.8602 1.3395 0.0 0
M  V30 18 C 4.0308 3.7774 0.0 0
M  V30 19 O 2.8602 5.8773 0.0 0
M  V30 20 C 0.2534 5.8773 0.0 0
M  V30 21 C -2.3533 5.8773 0.0 0
M  V30 22 C -6.1669 2.1723 0.0 0
M  V30 23 C -4.2239 0.4223 0.0 0
M  V30 24 O -1.7619 -0.8327 0.0 0
M  V30 25 C 0.193 -2.5826 0.0 0
M  V30 26 C 3.9946 0.4465 0.0 0 CFG=2
M  V30 27 C 5.4669 3.4757 0.0 0
M  V30 28 C 0.2172 7.422 0.0 0
M  V30 29 C -7.2048 1.0982 0.0 0
M  V30 30 C -5.2618 -0.6516 0.0 0
M  V30 31 O 4.7308 -0.9413 0.0 0
M  V30 32 C 5.4307 0.8206 0.0 0
M  V30 33 C 2.7998 -0.4706 0.0 0
M  V30 34 C 6.0945 2.1602 0.0 0 CFG=1
M  V30 35 C -6.7703 -0.3017 0.0 0
M  V30 36 C 7.5668 2.1964 0.0 0
M  V30 37 N -7.8082 -1.3757 0.0 0
M  V30 38 N -9.3168 -1.0258 0.0 0 CHG=1
M  V30 39 N -10.3546 -2.0999 0.0 0 CHG=-1
M  V30 END ATOM
M  V30 BEGIN BOND
M  V30 1 2 1 2
M  V30 2 1 2 3
M  V30 3 1 4 2 CFG=3
M  V30 4 1 3 5
M  V30 5 1 4 6
M  V30 6 1 4 7
M  V30 7 1 4 8
M  V30 8 1 5 9 CFG=1
M  V30 9 1 6 10 CFG=1
M  V30 10 1 6 11
M  V30 11 1 7 12 CFG=3
M  V30 12 1 7 13
M  V30 13 1 8 14 CFG=3
M  V30 14 1 9 15
M  V30 15 1 10 16
M  V30 16 2 11 17
M  V30 17 2 12 18
M  V30 18 1 13 19 CFG=1
M  V30 19 1 13 20
M  V30 20 1 14 21 CFG=3
M  V30 21 2 15 22
M  V30 22 1 15 23
M  V30 23 2 16 24
M  V30 24 1 16 25
M  V30 25 1 17 26
M  V30 26 1 18 27
M  V30 27 2 20 28
M  V30 28 1 22 29
M  V30 29 2 23 30
M  V30 30 1 26 31 CFG=1
M  V30 31 1 26 32
M  V30 32 1 26 33
M  V30 33 1 27 34
M  V30 34 2 29 35
M  V30 35 1 34 36 CFG=3
M  V30 36 1 35 37
M  V30 37 2 37 38
M  V30 38 2 38 39
M  V30 39 1 5 8
M  V30 40 1 14 20
M  V30 41 1 30 35
M  V30 42 1 32 34
M  V30 END BOND
M  V30 BEGIN COLLECTION
M  V30 MDLV30/STEABS ATOMS=(9 4 5 6 7 8 13 14 26 34)
M  V30 END COLLECTION
M  V30 END CTAB
M  END
>  <Compound>
4'-Azido cytochalasin H

>  <Origin>
Magnaporte grisea
mutasynthesis

>  <Reference>
Wang C, Lambert C, Hauser M, Deuschmann A, Zeilinger C, Rottner K, Stradal TEB, Stadler M, Skellam EJ, Cox RJ. Diversely Functionalised Cytochalasins through Mutasynthesis and Semi-Synthesis. Chemistry. 2020 Oct 27;26(60):13578-13583. doi: 10.1002/chem.202002241.

>  <Actin Disruption Activity (1h Treatment)>
+++

>  <Reversibilty>
not tested

>  <Box ID>
2C0062

>  <Quantity>
2.02 mg

>  <Cytotoxicity in L929 mouse fibroblasts [µM]>
0.082

>  <Synonyms>
WC075
compound 1h

>  <Subclass>
Cytochalasin

>  <Molecular Formula>
C31H40N4O4

>  <Total Molweight>
532.683

>  <Smiles>
C[C@@H]([C@@H]([C@H](Cc(cc1)ccc1N=[N+]=[N-])N1)[C@@]([C@H]([C@@H]2C)/C=C/C[C@H](C)C[C@](C)(/C=C3)O)([C@@H]\3OC(C)=O)C1=O)C2=C

>  <Amino Acid>
Tyrosine derivative
(p-azido)

>  <Cytotoxicity in L929 mouse Fibroblasts [µg/mL]>
0.044

>  <Cytotoxicity in KB3.1>


>  <Anti-Biofilm>
not tested

$$$$
Compound 22
Actelion Java MolfileCreator 2.0

  0  0  0  0  0  0              0 V3000
M  V30 BEGIN CTAB
M  V30 COUNTS 55 61 0 0 0
M  V30 BEGIN ATOM
M  V30 1 O 0.0 0.0 0.0 0
M  V30 2 N 1.4436 0.196 0.0 0 CHG=1
M  V30 3 O 1.9961 1.5862 0.0 0 CHG=-1
M  V30 4 C 2.2634 -0.9802 0.0 0
M  V30 5 C 1.6396 -2.299 0.0 0
M  V30 6 C 3.707 -0.7841 0.0 0
M  V30 7 N 0.196 -2.709 0.0 0
M  V30 8 C 2.4595 -3.4753 0.0 0
M  V30 9 C 4.5269 -1.9604 0.0 0
M  V30 10 O 0.1604 -4.1526 0.0 0
M  V30 11 N 1.5683 -4.6516 0.0 0
M  V30 12 C 3.9031 -3.2793 0.0 0
M  V30 13 N 4.7229 -4.4556 0.0 0
M  V30 14 C 6.1665 -4.2595 0.0 0
M  V30 15 C 6.719 -2.8694 0.0 0
M  V30 16 N 5.9527 -1.5505 0.0 0
M  V30 17 C 8.127 -2.5307 0.0 0
M  V30 18 N 6.8972 -0.4277 0.0 0
M  V30 19 N 8.2518 -1.0158 0.0 0
M  V30 20 C 9.4993 -0.2495 0.0 0
M  V30 21 C 9.4637 1.2653 0.0 0
M  V30 22 C 10.7469 -0.9445 0.0 0
M  V30 23 C 10.7113 2.0317 0.0 0
M  V30 24 C 11.9945 -0.1782 0.0 0
M  V30 25 C 11.9588 1.3366 0.0 0
M  V30 26 C 13.2064 2.103 0.0 0
M  V30 27 C 14.6144 1.7644 0.0 0 CFG=2
M  V30 28 N 15.1669 0.4455 0.0 0
M  V30 29 C 15.6659 2.7803 0.0 0 CFG=1
M  V30 30 C 16.6105 0.4812 0.0 0
M  V30 31 C 16.9135 2.0852 0.0 0 CFG=2
M  V30 32 C 15.6303 4.2952 0.0 0 CFG=1
M  V30 33 O 16.4679 -0.9624 0.0 0
M  V30 34 C 18.6957 -0.1604 0.0 0 CFG=2
M  V30 35 C 18.1611 2.8515 0.0 0 CFG=1
M  V30 36 C 16.8778 5.0615 0.0 0
M  V30 37 C 14.3114 5.0615 0.0 0
M  V30 38 O 18.6601 -1.604 0.0 0
M  V30 39 C 20.6918 -0.0534 0.0 0
M  V30 40 C 19.4086 2.1565 0.0 0
M  V30 41 C 18.1254 4.3665 0.0 0 CFG=1
M  V30 42 C 16.8422 6.5764 0.0 0
M  V30 43 C 17.3412 -2.299 0.0 0
M  V30 44 C 21.9394 0.7128 0.0 0
M  V30 45 C 20.6562 2.9228 0.0 0
M  V30 46 O 19.1235 5.4358 0.0 0
M  V30 47 O 16.0224 -1.5327 0.0 0
M  V30 48 C 17.3056 -3.7427 0.0 0
M  V30 49 C 23.3117 0.3029 0.0 0 CFG=2
M  V30 50 C 21.9038 2.2278 0.0 0
M  V30 51 O 24.7375 0.1069 0.0 0
M  V30 52 C 24.1316 1.5505 0.0 0
M  V30 53 C 23.7217 -1.0693 0.0 0
M  V30 54 C 23.2761 2.709 0.0 0 CFG=1
M  V30 55 C 23.686 4.1526 0.0 0
M  V30 END ATOM
M  V30 BEGIN BOND
M  V30 1 2 1 2
M  V30 2 1 2 3
M  V30 3 1 2 4
M  V30 4 1 4 5
M  V30 5 2 4 6
M  V30 6 2 5 7
M  V30 7 1 5 8
M  V30 8 1 6 9
M  V30 9 1 7 10
M  V30 10 2 8 11
M  V30 11 1 8 12
M  V30 12 1 12 13
M  V30 13 1 13 14
M  V30 14 1 14 15
M  V30 15 1 15 16
M  V30 16 2 15 17
M  V30 17 2 16 18
M  V30 18 1 17 19
M  V30 19 1 19 20
M  V30 20 2 20 21
M  V30 21 1 20 22
M  V30 22 1 21 23
M  V30 23 2 22 24
M  V30 24 2 23 25
M  V30 25 1 25 26
M  V30 26 1 27 26 CFG=1
M  V30 27 1 27 28
M  V30 28 1 27 29
M  V30 29 1 28 30
M  V30 30 1 29 31
M  V30 31 1 29 32 CFG=3
M  V30 32 2 30 33
M  V30 33 1 31 34
M  V30 34 1 31 35
M  V30 35 1 32 36
M  V30 36 1 32 37 CFG=3
M  V30 37 1 34 38 CFG=1
M  V30 38 1 34 39
M  V30 39 1 35 40 CFG=3
M  V30 40 1 35 41
M  V30 41 2 36 42
M  V30 42 1 38 43
M  V30 43 2 39 44
M  V30 44 2 40 45
M  V30 45 1 41 46 CFG=1
M  V30 46 2 43 47
M  V30 47 1 43 48
M  V30 48 1 44 49
M  V30 49 1 45 50
M  V30 50 1 49 51 CFG=1
M  V30 51 1 49 52
M  V30 52 1 49 53
M  V30 53 1 50 54
M  V30 54 1 54 55 CFG=3
M  V30 55 2 9 12
M  V30 56 1 10 11
M  V30 57 1 18 19
M  V30 58 1 24 25
M  V30 59 1 31 30 CFG=3
M  V30 60 1 36 41
M  V30 61 1 52 54
M  V30 END BOND
M  V30 BEGIN COLLECTION
M  V30 MDLV30/STEABS ATOMS=(9 27 29 31 32 34 35 41 49 54)
M  V30 END COLLECTION
M  V30 END CTAB
M  END
>  <Compound>
4'-Benzofuran-linkend cytochalasin H

>  <Origin>
Magnaporte grisea
semi-synthetic
mutasynthesis

>  <Reference>
Wang C, Lambert C, Hauser M, Deuschmann A, Zeilinger C, Rottner K, Stradal TEB, Stadler M, Skellam EJ, Cox RJ. Diversely Functionalised Cytochalasins through Mutasynthesis and Semi-Synthesis. Chemistry. 2020 Oct 27;26(60):13578-13583. doi: 10.1002/chem.202002241.

>  <Actin Disruption Activity (1h Treatment)>
+

>  <Reversibilty>
not tested

>  <Box ID>
1C0044

>  <Quantity>
0.71 mg

>  <Cytotoxicity in L929 mouse fibroblasts [µM]>
1.861

>  <Synonyms>
WC126
compound 21

>  <Subclass>
Cytochalasin

>  <Molecular Formula>
C39H44N8O8

>  <Total Molweight>
752.826

>  <Smiles>
C[C@@H](C([C@H](Cc(cc1)ccc1-[n]1nnc(CNc(c2n[o]nc22)ccc2[N+]([O-])=O)c1)N1)[C@@]([C@H]([C@@H]2O)/C=C/C[C@H](C)C[C@](C)(/C=C3)O)(C\3OC(C)=O)C1=O)C2=C

>  <Amino Acid>
Tyrosine derivative

>  <Cytotoxicity in L929 mouse Fibroblasts [µg/mL]>
1.4

>  <Cytotoxicity in KB3.1>


>  <Anti-Biofilm>
not tested

$$$$
Compound 23
Actelion Java MolfileCreator 2.0

  0  0  0  0  0  0              0 V3000
M  V30 BEGIN CTAB
M  V30 COUNTS 58 64 0 0 0
M  V30 BEGIN ATOM
M  V30 1 S 0.0 0.0 0.0 0
M  V30 2 C 1.0813 -0.9644 0.0 0
M  V30 3 C 0.5552 1.4173 0.0 0
M  V30 4 C 2.3379 -0.1899 0.0 0 CFG=2
M  V30 5 C 0.8913 -2.411 0.0 0
M  V30 6 C 2.0018 1.3151 0.0 0 CFG=1
M  V30 7 N 3.7845 -0.2922 0.0 0
M  V30 8 C 2.5133 -3.5946 0.0 0
M  V30 9 N 3.2585 2.0895 0.0 0
M  V30 10 C 4.3398 1.1251 0.0 0
M  V30 11 C 4.3544 -2.7178 0.0 0
M  V30 12 O 5.7572 1.4758 0.0 0
M  V30 13 C 5.5234 -3.5361 0.0 0
M  V30 14 C 6.8531 -2.8932 0.0 0
M  V30 15 O 6.9554 -1.3589 0.0 0
M  V30 16 O 8.0221 -3.7115 0.0 0
M  V30 17 C 9.3518 -3.0685 0.0 0
M  V30 18 C 9.4541 -1.5342 0.0 0
M  V30 19 N 8.2851 -0.4822 0.0 0
M  V30 20 C 10.7107 -0.7598 0.0 0
M  V30 21 N 8.8404 0.9351 0.0 0
M  V30 22 N 10.36 0.7452 0.0 0
M  V30 23 C 11.3245 1.9142 0.0 0
M  V30 24 C 10.8276 3.39 0.0 0
M  V30 25 C 12.7418 1.6511 0.0 0
M  V30 26 C 11.792 4.559 0.0 0
M  V30 27 C 13.7063 2.8201 0.0 0
M  V30 28 C 13.2094 4.296 0.0 0
M  V30 29 C 14.1738 5.4649 0.0 0
M  V30 30 C 15.5912 5.2019 0.0 0 CFG=2
M  V30 31 N 16.1465 3.8722 0.0 0
M  V30 32 C 16.6725 6.254 0.0 0 CFG=1
M  V30 33 C 17.5931 4.0622 0.0 0
M  V30 34 C 17.9292 5.5672 0.0 0 CFG=2
M  V30 35 C 16.6287 7.8029 0.0 0 CFG=1
M  V30 36 O 17.4324 2.8932 0.0 0
M  V30 37 C 17.8854 4.106 0.0 0 CFG=2
M  V30 38 C 19.1859 6.3417 0.0 0 CFG=1
M  V30 39 C 17.8854 8.5774 0.0 0
M  V30 40 C 15.2844 8.5774 0.0 0
M  V30 41 O 18.2945 2.7324 0.0 0
M  V30 42 C 19.142 3.4192 0.0 0
M  V30 43 C 20.4425 5.6549 0.0 0
M  V30 44 C 19.142 7.8906 0.0 0 CFG=1
M  V30 45 C 17.8415 10.1263 0.0 0
M  V30 46 C 17.2424 1.6511 0.0 0
M  V30 47 C 20.3987 4.1937 0.0 0
M  V30 48 C 21.5823 6.6485 0.0 0
M  V30 49 O 20.3987 8.665 0.0 0
M  V30 50 O 15.7374 1.9872 0.0 0
M  V30 51 C 17.6662 0.2776 0.0 0
M  V30 52 C 21.5384 3.3169 0.0 0 CFG=2
M  V30 53 C 22.9997 6.3709 0.0 0
M  V30 54 O 22.2398 1.9434 0.0 0
M  V30 55 C 22.9558 3.6822 0.0 0
M  V30 56 C 20.3402 2.4256 0.0 0
M  V30 57 C 23.5988 5.0558 0.0 0 CFG=1
M  V30 58 C 25.06 5.0996 0.0 0
M  V30 END ATOM
M  V30 BEGIN BOND
M  V30 1 1 1 2
M  V30 2 1 1 3
M  V30 3 1 2 4
M  V30 4 1 2 5
M  V30 5 1 3 6
M  V30 6 1 4 7 CFG=3
M  V30 7 1 5 8
M  V30 8 1 6 9 CFG=3
M  V30 9 1 7 10
M  V30 10 1 8 11
M  V30 11 2 10 12
M  V30 12 1 11 13
M  V30 13 1 13 14
M  V30 14 2 14 15
M  V30 15 1 14 16
M  V30 16 1 16 17
M  V30 17 1 17 18
M  V30 18 1 18 19
M  V30 19 2 18 20
M  V30 20 2 19 21
M  V30 21 1 20 22
M  V30 22 1 22 23
M  V30 23 2 23 24
M  V30 24 1 23 25
M  V30 25 1 24 26
M  V30 26 2 25 27
M  V30 27 2 26 28
M  V30 28 1 28 29
M  V30 29 1 30 29 CFG=1
M  V30 30 1 30 31
M  V30 31 1 30 32
M  V30 32 1 31 33
M  V30 33 1 32 34
M  V30 34 1 32 35 CFG=3
M  V30 35 2 33 36
M  V30 36 1 34 37
M  V30 37 1 34 38
M  V30 38 1 35 39
M  V30 39 1 35 40 CFG=3
M  V30 40 1 37 41 CFG=1
M  V30 41 1 37 42
M  V30 42 1 38 43 CFG=3
M  V30 43 1 38 44
M  V30 44 2 39 45
M  V30 45 1 41 46
M  V30 46 2 42 47
M  V30 47 2 43 48
M  V30 48 1 44 49 CFG=1
M  V30 49 2 46 50
M  V30 50 1 46 51
M  V30 51 1 47 52
M  V30 52 1 48 53
M  V30 53 1 52 54 CFG=1
M  V30 54 1 52 55
M  V30 55 1 52 56
M  V30 56 1 53 57
M  V30 57 1 57 58 CFG=3
M  V30 58 1 4 6
M  V30 59 1 9 10
M  V30 60 1 21 22
M  V30 61 1 27 28
M  V30 62 1 34 33 CFG=3
M  V30 63 1 39 44
M  V30 64 1 55 57
M  V30 END BOND
M  V30 BEGIN COLLECTION
M  V30 MDLV30/STEABS ATOMS=(11 4 6 30 32 34 35 37 38 44 52 57)
M  V30 END COLLECTION
M  V30 END CTAB
M  END
>  <Compound>
4'-Biotin-triazole-linked Cytochalasin H 1

>  <Origin>
Magnaporte grisea
semi-synthetic
mutasynthesis

>  <Reference>
Wang C, Lambert C, Hauser M, Deuschmann A, Zeilinger C, Rottner K, Stradal TEB, Stadler M, Skellam EJ, Cox RJ. Diversely Functionalised Cytochalasins through Mutasynthesis and Semi-Synthesis. Chemistry. 2020 Oct 27;26(60):13578-13583. doi: 10.1002/chem.202002241.

>  <Actin Disruption Activity (1h Treatment)>
++

>  <Reversibilty>
not tested

>  <Box ID>
2C0061

>  <Quantity>
1.54 mg

>  <Cytotoxicity in L929 mouse fibroblasts [µM]>
 small proliferation inhibition

>  <Synonyms>
WC093
compound 7a

>  <Subclass>
Cytochalasin

>  <Molecular Formula>
C44H58N6O7S

>  <Total Molweight>
815.046

>  <Smiles>
C[C@@H]([C@@H]([C@H](Cc(cc1)ccc1-[n]1nnc(COC(CCCCC([C@H]2N3)SC[C@@H]2NC3=O)=O)c1)N1)[C@@]([C@H]([C@@H]2C)/C=C/C[C@H](C)C[C@](C)(/C=C3)O)([C@@H]\3OC(C)=O)C1=O)C2=C

>  <Amino Acid>
Tyrosine derivative

>  <Cytotoxicity in L929 mouse Fibroblasts [µg/mL]>
 small proliferation inhibition

>  <Cytotoxicity in KB3.1>


>  <Anti-Biofilm>
not tested

$$$$
Compound 24
Actelion Java MolfileCreator 2.0

  0  0  0  0  0  0              0 V3000
M  V30 BEGIN CTAB
M  V30 COUNTS 59 65 0 0 0
M  V30 BEGIN ATOM
M  V30 1 S 0.0 0.0 0.0 0
M  V30 2 C -0.5917 -1.3547 0.0 0
M  V30 3 C 1.4637 -0.0467 0.0 0
M  V30 4 C 0.5294 -2.2422 0.0 0 CFG=2
M  V30 5 C -2.1021 -1.6817 0.0 0
M  V30 6 C 1.7907 -1.4637 0.0 0 CFG=1
M  V30 7 N 0.8564 -3.6593 0.0 0
M  V30 8 C -3.2232 -0.545 0.0 0
M  V30 9 N 2.9118 -2.3512 0.0 0
M  V30 10 C 2.3201 -3.706 0.0 0
M  V30 11 C -2.8807 0.9498 0.0 0
M  V30 12 O 3.0675 -4.9361 0.0 0
M  V30 13 C -1.4637 1.3702 0.0 0
M  V30 14 C -1.1211 2.8651 0.0 0
M  V30 15 O -2.2422 4.0018 0.0 0
M  V30 16 O 0.2958 3.2855 0.0 0
M  V30 17 C 0.6384 4.7804 0.0 0
M  V30 18 C 2.6004 5.341 0.0 0
M  V30 19 C 2.7094 6.8825 0.0 0
M  V30 20 N 1.526 7.9414 0.0 0
M  V30 21 C 3.9707 7.6611 0.0 0
M  V30 22 N 2.0865 9.374 0.0 0
M  V30 23 N 3.6125 9.1871 0.0 0
M  V30 24 C 4.5468 10.3706 0.0 0
M  V30 25 C 4.0485 11.8499 0.0 0
M  V30 26 C 5.9794 10.1058 0.0 0
M  V30 27 C 4.9984 13.0177 0.0 0
M  V30 28 C 6.9137 11.2737 0.0 0
M  V30 29 C 6.431 12.753 0.0 0
M  V30 30 C 7.412 13.9209 0.0 0
M  V30 31 C 8.8446 13.6561 0.0 0 CFG=2
M  V30 32 N 9.4051 12.317 0.0 0
M  V30 33 C 9.919 14.7306 0.0 0 CFG=1
M  V30 34 C 10.8533 12.5194 0.0 0
M  V30 35 C 11.1803 14.0454 0.0 0 CFG=2
M  V30 36 C 9.8723 16.2877 0.0 0 CFG=1
M  V30 37 O 10.6976 11.336 0.0 0
M  V30 38 C 11.1336 12.5817 0.0 0 CFG=2
M  V30 39 C 12.4416 14.824 0.0 0 CFG=1
M  V30 40 C 11.1336 17.0663 0.0 0
M  V30 41 C 8.5176 17.0663 0.0 0
M  V30 42 O 11.554 11.2114 0.0 0
M  V30 43 C 12.3949 11.8966 0.0 0
M  V30 44 C 13.7029 14.1389 0.0 0
M  V30 45 C 12.3949 16.3812 0.0 0 CFG=1
M  V30 46 C 11.0869 18.6235 0.0 0
M  V30 47 C 10.4951 10.1214 0.0 0
M  V30 48 C 13.6561 12.6751 0.0 0
M  V30 49 C 14.8396 15.1043 0.0 0
M  V30 50 O 13.6561 17.1597 0.0 0
M  V30 51 O 8.9691 10.464 0.0 0
M  V30 52 C 10.9156 8.7356 0.0 0
M  V30 53 C 14.7929 11.8031 0.0 0 CFG=2
M  V30 54 C 16.2566 14.824 0.0 0
M  V30 55 O 15.4936 10.4173 0.0 0
M  V30 56 C 16.2099 12.1769 0.0 0
M  V30 57 C 13.5783 10.9 0.0 0
M  V30 58 C 16.8483 13.516 0.0 0 CFG=1
M  V30 59 C 18.312 13.5627 0.0 0
M  V30 END ATOM
M  V30 BEGIN BOND
M  V30 1 1 1 2
M  V30 2 1 1 3
M  V30 3 1 2 4
M  V30 4 1 2 5
M  V30 5 1 3 6
M  V30 6 1 4 7 CFG=3
M  V30 7 1 5 8
M  V30 8 1 6 9 CFG=3
M  V30 9 1 7 10
M  V30 10 1 8 11
M  V30 11 2 10 12
M  V30 12 1 11 13
M  V30 13 1 13 14
M  V30 14 2 14 15
M  V30 15 1 14 16
M  V30 16 1 16 17
M  V30 17 1 17 18
M  V30 18 1 18 19
M  V30 19 1 19 20
M  V30 20 2 19 21
M  V30 21 2 20 22
M  V30 22 1 21 23
M  V30 23 1 23 24
M  V30 24 2 24 25
M  V30 25 1 24 26
M  V30 26 1 25 27
M  V30 27 2 26 28
M  V30 28 2 27 29
M  V30 29 1 29 30
M  V30 30 1 31 30 CFG=1
M  V30 31 1 31 32
M  V30 32 1 31 33
M  V30 33 1 32 34
M  V30 34 1 33 35
M  V30 35 1 33 36 CFG=3
M  V30 36 2 34 37
M  V30 37 1 35 38
M  V30 38 1 35 39
M  V30 39 1 36 40
M  V30 40 1 36 41 CFG=3
M  V30 41 1 38 42 CFG=1
M  V30 42 1 38 43
M  V30 43 1 39 44 CFG=3
M  V30 44 1 39 45
M  V30 45 2 40 46
M  V30 46 1 42 47
M  V30 47 2 43 48
M  V30 48 2 44 49
M  V30 49 1 45 50 CFG=1
M  V30 50 2 47 51
M  V30 51 1 47 52
M  V30 52 1 48 53
M  V30 53 1 49 54
M  V30 54 1 53 55 CFG=1
M  V30 55 1 53 56
M  V30 56 1 53 57
M  V30 57 1 54 58
M  V30 58 1 58 59 CFG=3
M  V30 59 1 4 6
M  V30 60 1 9 10
M  V30 61 1 22 23
M  V30 62 1 28 29
M  V30 63 1 35 34 CFG=3
M  V30 64 1 40 45
M  V30 65 1 56 58
M  V30 END BOND
M  V30 BEGIN COLLECTION
M  V30 MDLV30/STEABS ATOMS=(11 4 6 31 33 35 36 38 39 45 53 58)
M  V30 END COLLECTION
M  V30 END CTAB
M  END
>  <Compound>
4'-Biotin-triazole-linked Cytochalasin H 2

>  <Origin>
Magnaporte grisea
semi-synthetic
mutasynthesis

>  <Reference>
Wang C, Lambert C, Hauser M, Deuschmann A, Zeilinger C, Rottner K, Stradal TEB, Stadler M, Skellam EJ, Cox RJ. Diversely Functionalised Cytochalasins through Mutasynthesis and Semi-Synthesis. Chemistry. 2020 Oct 27;26(60):13578-13583. doi: 10.1002/chem.202002241.

>  <Actin Disruption Activity (1h Treatment)>
+

>  <Reversibilty>
not tested

>  <Box ID>
1C0048

>  <Quantity>
2.48 mg

>  <Cytotoxicity in L929 mouse fibroblasts [µM]>
 small proliferation inhibition

>  <Synonyms>
WC094
compound 7b

>  <Subclass>
Cytochalasin

>  <Molecular Formula>
C45H60N6O7S

>  <Total Molweight>
829.072

>  <Smiles>
C[C@@H]([C@@H]([C@H](Cc(cc1)ccc1-[n]1nnc(CCOC(CCCCC([C@H]2N3)SC[C@@H]2NC3=O)=O)c1)N1)[C@@]([C@H]([C@@H]2C)/C=C/C[C@H](C)C[C@](C)(/C=C3)O)([C@@H]\3OC(C)=O)C1=O)C2=C

>  <Amino Acid>
Tyrosine derivative

>  <Cytotoxicity in L929 mouse Fibroblasts [µg/mL]>
 small proliferation inhibition

>  <Cytotoxicity in KB3.1>


>  <Anti-Biofilm>
not tested

$$$$
Compound 25
Actelion Java MolfileCreator 2.0

  0  0  0  0  0  0              0 V3000
M  V30 BEGIN CTAB
M  V30 COUNTS 60 66 0 0 0
M  V30 BEGIN ATOM
M  V30 1 S 0.0 0.0 0.0 0
M  V30 2 C -0.6096 -1.3377 0.0 0
M  V30 3 C 1.4393 -0.0169 0.0 0
M  V30 4 C 0.508 -2.2014 0.0 0 CFG=2
M  V30 5 C -2.1506 -1.6426 0.0 0
M  V30 6 C 1.7442 -1.4224 0.0 0 CFG=1
M  V30 7 N 0.8128 -3.6069 0.0 0
M  V30 8 C -3.2682 -0.4741 0.0 0
M  V30 9 N 2.8618 -2.286 0.0 0
M  V30 10 C 2.2522 -3.6238 0.0 0
M  V30 11 C -2.9465 1.0499 0.0 0
M  V30 12 O 2.9803 -4.8431 0.0 0
M  V30 13 C -1.5409 1.4901 0.0 0
M  V30 14 C -1.2192 3.0142 0.0 0
M  V30 15 O -2.3369 4.1827 0.0 0
M  V30 16 O 0.1862 3.4545 0.0 0
M  V30 17 C 2.3199 3.9964 0.0 0
M  V30 18 C 2.4046 5.5713 0.0 0
M  V30 19 C 3.7254 6.2317 0.0 0
M  V30 20 C 3.8101 7.8066 0.0 0
M  V30 21 N 2.6078 8.8565 0.0 0
M  V30 22 C 5.0632 8.6025 0.0 0
M  V30 23 N 3.1328 10.3128 0.0 0
M  V30 24 N 4.6907 10.1604 0.0 0
M  V30 25 C 5.6051 11.3627 0.0 0
M  V30 26 C 5.0802 12.8698 0.0 0
M  V30 27 C 7.0276 11.1256 0.0 0
M  V30 28 C 5.9946 14.0722 0.0 0
M  V30 29 C 7.942 12.3279 0.0 0
M  V30 30 C 7.4001 13.8351 0.0 0
M  V30 31 C 8.3146 15.0374 0.0 0
M  V30 32 C 9.7201 14.8003 0.0 0 CFG=2
M  V30 33 N 10.2451 13.4795 0.0 0
M  V30 34 C 10.7869 15.8502 0.0 0 CFG=1
M  V30 35 C 11.6845 13.6996 0.0 0
M  V30 36 C 12.0401 15.1898 0.0 0 CFG=2
M  V30 37 C 10.7192 17.4251 0.0 0 CFG=1
M  V30 38 O 11.4982 12.5312 0.0 0
M  V30 39 C 11.9723 13.7504 0.0 0 CFG=2
M  V30 40 C 13.2932 15.9857 0.0 0 CFG=1
M  V30 41 C 11.9723 18.221 0.0 0
M  V30 42 C 9.3306 18.221 0.0 0
M  V30 43 O 12.3618 12.3957 0.0 0
M  V30 44 C 13.2255 13.09 0.0 0
M  V30 45 C 14.5463 15.3253 0.0 0
M  V30 46 C 13.2255 17.5606 0.0 0 CFG=1
M  V30 47 C 11.9046 19.7959 0.0 0
M  V30 48 C 11.3288 11.3119 0.0 0
M  V30 49 C 14.4786 13.8859 0.0 0
M  V30 50 C 15.6809 16.3075 0.0 0
M  V30 51 O 14.4786 18.3565 0.0 0
M  V30 52 O 9.7709 11.6675 0.0 0
M  V30 53 C 11.7183 9.9402 0.0 0
M  V30 54 C 15.6132 13.0392 0.0 0 CFG=2
M  V30 55 C 17.0864 16.0534 0.0 0
M  V30 56 O 16.2905 11.6675 0.0 0
M  V30 57 C 17.0187 13.4287 0.0 0
M  V30 58 C 14.377 12.1755 0.0 0
M  V30 59 C 17.6622 14.7495 0.0 0 CFG=1
M  V30 60 C 19.1016 14.8173 0.0 0
M  V30 END ATOM
M  V30 BEGIN BOND
M  V30 1 1 1 2
M  V30 2 1 1 3
M  V30 3 1 2 4
M  V30 4 1 2 5
M  V30 5 1 3 6
M  V30 6 1 4 7 CFG=3
M  V30 7 1 5 8
M  V30 8 1 6 9 CFG=3
M  V30 9 1 7 10
M  V30 10 1 8 11
M  V30 11 2 10 12
M  V30 12 1 11 13
M  V30 13 1 13 14
M  V30 14 2 14 15
M  V30 15 1 14 16
M  V30 16 1 16 17
M  V30 17 1 17 18
M  V30 18 1 18 19
M  V30 19 1 19 20
M  V30 20 1 20 21
M  V30 21 2 20 22
M  V30 22 2 21 23
M  V30 23 1 22 24
M  V30 24 1 24 25
M  V30 25 2 25 26
M  V30 26 1 25 27
M  V30 27 1 26 28
M  V30 28 2 27 29
M  V30 29 2 28 30
M  V30 30 1 30 31
M  V30 31 1 32 31 CFG=1
M  V30 32 1 32 33
M  V30 33 1 32 34
M  V30 34 1 33 35
M  V30 35 1 34 36
M  V30 36 1 34 37 CFG=3
M  V30 37 2 35 38
M  V30 38 1 36 39
M  V30 39 1 36 40
M  V30 40 1 37 41
M  V30 41 1 37 42 CFG=3
M  V30 42 1 39 43 CFG=1
M  V30 43 1 39 44
M  V30 44 1 40 45 CFG=3
M  V30 45 1 40 46
M  V30 46 2 41 47
M  V30 47 1 43 48
M  V30 48 2 44 49
M  V30 49 2 45 50
M  V30 50 1 46 51 CFG=1
M  V30 51 2 48 52
M  V30 52 1 48 53
M  V30 53 1 49 54
M  V30 54 1 50 55
M  V30 55 1 54 56 CFG=1
M  V30 56 1 54 57
M  V30 57 1 54 58
M  V30 58 1 55 59
M  V30 59 1 59 60 CFG=3
M  V30 60 1 4 6
M  V30 61 1 9 10
M  V30 62 1 23 24
M  V30 63 1 29 30
M  V30 64 1 36 35 CFG=3
M  V30 65 1 41 46
M  V30 66 1 57 59
M  V30 END BOND
M  V30 BEGIN COLLECTION
M  V30 MDLV30/STEABS ATOMS=(11 4 6 32 34 36 37 39 40 46 54 59)
M  V30 END COLLECTION
M  V30 END CTAB
M  END
>  <Compound>
4'-Biotin-triazole-linked Cytochalasin H 3

>  <Origin>
Magnaporte grisea
semi-synthetic
mutasynthesis

>  <Reference>
Wang C, Lambert C, Hauser M, Deuschmann A, Zeilinger C, Rottner K, Stradal TEB, Stadler M, Skellam EJ, Cox RJ. Diversely Functionalised Cytochalasins through Mutasynthesis and Semi-Synthesis. Chemistry. 2020 Oct 27;26(60):13578-13583. doi: 10.1002/chem.202002241.

>  <Actin Disruption Activity (1h Treatment)>
-

>  <Reversibilty>
not tested

>  <Box ID>
2C0050

>  <Quantity>
0.72 mg

>  <Cytotoxicity in L929 mouse fibroblasts [µM]>
 small proliferation inhibition

>  <Synonyms>
WC095
Compound 7c

>  <Subclass>
Cytochalasin

>  <Molecular Formula>
C46H62N6O7S

>  <Total Molweight>
843.099

>  <Smiles>
C[C@@H]([C@@H]([C@H](Cc(cc1)ccc1-[n]1nnc(CCCOC(CCCCC([C@H]2N3)SC[C@@H]2NC3=O)=O)c1)N1)[C@@]([C@H]([C@@H]2C)/C=C/C[C@H](C)C[C@](C)(/C=C3)O)([C@@H]\3OC(C)=O)C1=O)C2=C

>  <Amino Acid>
Tyrosine derivative

>  <Cytotoxicity in L929 mouse Fibroblasts [µg/mL]>
 small proliferation inhibition

>  <Cytotoxicity in KB3.1>


>  <Anti-Biofilm>
not tested

$$$$
Compound 26
Actelion Java MolfileCreator 2.0

  0  0  0  0  0  0              0 V3000
M  V30 BEGIN CTAB
M  V30 COUNTS 37 40 0 0 0
M  V30 BEGIN ATOM
M  V30 1 I 0.0 0.0 0.0 0
M  V30 2 C 0.9779 1.1655 0.0 0
M  V30 3 C 0.4822 2.6392 0.0 0
M  V30 4 C 2.4114 0.8976 0.0 0
M  V30 5 C 1.4602 3.8047 0.0 0
M  V30 6 C 3.3894 2.0631 0.0 0
M  V30 7 C 2.8937 3.5368 0.0 0
M  V30 8 C 3.8717 4.7023 0.0 0
M  V30 9 C 5.3052 4.4344 0.0 0 CFG=2
M  V30 10 N 5.8679 3.0947 0.0 0
M  V30 11 C 6.3904 5.4928 0.0 0 CFG=1
M  V30 12 C 7.3282 3.2822 0.0 0
M  V30 13 C 7.6631 4.7961 0.0 0 CFG=2
M  V30 14 C 6.3502 7.0334 0.0 0 CFG=1
M  V30 15 O 6.9397 1.7952 0.0 0
M  V30 16 C 7.6229 3.3358 0.0 0 CFG=2
M  V30 17 C 8.9358 5.5731 0.0 0 CFG=1
M  V30 18 C 7.6229 7.8105 0.0 0
M  V30 19 C 4.9971 7.8105 0.0 0
M  V30 20 O 7.7033 1.6478 0.0 0
M  V30 21 C 8.8956 2.6392 0.0 0
M  V30 22 C 10.2086 4.8765 0.0 0
M  V30 23 C 8.8956 7.1138 0.0 0 CFG=1
M  V30 24 C 7.5827 9.3511 0.0 0
M  V30 25 C 6.4172 0.8708 0.0 0
M  V30 26 C 10.1684 3.4162 0.0 0
M  V30 27 C 11.3473 5.8679 0.0 0
M  V30 28 O 10.1684 7.8908 0.0 0
M  V30 29 O 5.0239 1.554 0.0 0
M  V30 30 C 6.4708 -0.5894 0.0 0
M  V30 31 C 11.3071 2.5052 0.0 0 CFG=2
M  V30 32 C 12.7808 5.5731 0.0 0
M  V30 33 O 10.932 1.0717 0.0 0
M  V30 34 C 12.7406 2.8803 0.0 0
M  V30 35 C 12.3387 1.4736 0.0 0
M  V30 36 C 13.3837 4.2602 0.0 0 CFG=1
M  V30 37 C 14.844 4.3004 0.0 0
M  V30 END ATOM
M  V30 BEGIN BOND
M  V30 1 1 1 2
M  V30 2 2 2 3
M  V30 3 1 2 4
M  V30 4 1 3 5
M  V30 5 2 4 6
M  V30 6 2 5 7
M  V30 7 1 7 8
M  V30 8 1 9 8 CFG=1
M  V30 9 1 9 10
M  V30 10 1 9 11
M  V30 11 1 10 12
M  V30 12 1 11 13
M  V30 13 1 11 14 CFG=3
M  V30 14 2 12 15
M  V30 15 1 13 16
M  V30 16 1 13 17
M  V30 17 1 14 18
M  V30 18 1 14 19 CFG=3
M  V30 19 1 16 20 CFG=1
M  V30 20 1 16 21
M  V30 21 1 17 22 CFG=3
M  V30 22 1 17 23
M  V30 23 2 18 24
M  V30 24 1 20 25
M  V30 25 2 21 26
M  V30 26 2 22 27
M  V30 27 1 23 28 CFG=1
M  V30 28 2 25 29
M  V30 29 1 25 30
M  V30 30 1 26 31
M  V30 31 1 27 32
M  V30 32 1 31 33 CFG=1
M  V30 33 1 31 34
M  V30 34 1 31 35
M  V30 35 1 32 36
M  V30 36 1 36 37 CFG=3
M  V30 37 1 6 7
M  V30 38 1 13 12 CFG=3
M  V30 39 1 18 23
M  V30 40 1 34 36
M  V30 END BOND
M  V30 BEGIN COLLECTION
M  V30 MDLV30/STEABS ATOMS=(9 9 11 13 14 16 17 23 31 36)
M  V30 END COLLECTION
M  V30 END CTAB
M  END
>  <Compound>
4'-Iodo Cytochalasin H

>  <Origin>
Magnaporte grisea
muta-synthesis

>  <Reference>
Wang C, Lambert C, Hauser M, Deuschmann A, Zeilinger C, Rottner K, Stradal TEB, Stadler M, Skellam EJ, Cox RJ. Diversely Functionalised Cytochalasins through Mutasynthesis and Semi-Synthesis. Chemistry. 2020 Oct 27;26(60):13578-13583. doi: 10.1002/chem.202002241. Epub 2020 Sep 17. PMID: 32484589; PMCID: PMC7692911.

>  <Actin Disruption Activity (1h Treatment)>
++

>  <Reversibilty>
not tested

>  <Box ID>
2C0059

>  <Quantity>
2.39 mg

>  <Cytotoxicity in L929 mouse fibroblasts [µM]>
0.128

>  <Synonyms>
WC097
Compound 1e

>  <Subclass>
Cytochalasin

>  <Molecular Formula>
C30H38NO5I

>  <Total Molweight>
619.534

>  <Smiles>
C[C@@H]([C@@H]([C@H](Cc(cc1)ccc1I)N1)[C@@]([C@H]([C@@H]2O)/C=C/C[C@H](C)C[C@](C)(/C=C3)O)([C@@H]\3OC(C)=O)C1=O)C2=C

>  <Amino Acid>
Tyrosine derivative
(p-iodo)

>  <Cytotoxicity in L929 mouse Fibroblasts [µg/mL]>
0.08

>  <Cytotoxicity in KB3.1>


>  <Anti-Biofilm>
not tested

$$$$
Compound 27
Actelion Java MolfileCreator 2.0

  0  0  0  0  0  0              0 V3000
M  V30 BEGIN CTAB
M  V30 COUNTS 64 73 0 0 0
M  V30 BEGIN ATOM
M  V30 1 O 0.0 0.0 0.0 0
M  V30 2 C 0.0842 1.2515 0.0 0
M  V30 3 N -1.4441 1.1312 0.0 0
M  V30 4 C 0.361 2.7559 0.0 0 CFG=1
M  V30 5 C -2.106 2.5392 0.0 0 CFG=2
M  V30 6 C 0.3249 1.2877 0.0 0 CFG=2
M  V30 7 C 1.6246 3.5381 0.0 0 CFG=1
M  V30 8 C -0.9748 3.5381 0.0 0 CFG=2
M  V30 9 C -3.6103 2.8883 0.0 0
M  V30 10 O 0.7702 -0.0962 0.0 0
M  V30 11 C 1.5885 0.5535 0.0 0
M  V30 12 C 2.8883 2.816 0.0 0
M  V30 13 C 1.5885 5.0785 0.0 0 CFG=2
M  V30 14 C -1.0109 5.0785 0.0 0 CFG=1
M  V30 15 C -4.6453 1.8172 0.0 0
M  V30 16 C -0.2527 -1.1793 0.0 0
M  V30 17 C 2.8521 1.3358 0.0 0
M  V30 18 C 4.0195 3.7788 0.0 0
M  V30 19 O 2.8521 5.8608 0.0 0
M  V30 20 C 0.2527 5.8608 0.0 0
M  V30 21 C -2.3467 5.8608 0.0 0
M  V30 22 C -6.1496 2.1662 0.0 0
M  V30 23 C -4.2121 0.4212 0.0 0
M  V30 24 O -1.757 -0.8303 0.0 0
M  V30 25 C 0.1925 -2.5754 0.0 0
M  V30 26 C 3.9834 0.4452 0.0 0 CFG=2
M  V30 27 C 5.4516 3.4779 0.0 0
M  V30 28 C 0.2166 7.4012 0.0 0
M  V30 29 C -7.1846 1.0951 0.0 0
M  V30 30 C -5.247 -0.6498 0.0 0
M  V30 31 O 4.7175 -0.9386 0.0 0
M  V30 32 C 5.4155 0.8183 0.0 0
M  V30 33 C 2.792 -0.4693 0.0 0
M  V30 34 C 6.0774 2.1662 0.0 0 CFG=1
M  V30 35 C -6.7514 -0.3008 0.0 0
M  V30 36 C 7.5456 2.2023 0.0 0
M  V30 37 N -7.7863 -1.3719 0.0 0
M  V30 38 N -9.3147 -1.1793 0.0 0
M  V30 39 C -7.5095 -2.804 0.0 0
M  V30 40 N -9.9766 -2.5152 0.0 0
M  V30 41 C -8.8454 -3.5381 0.0 0
M  V30 42 C -9.0379 -4.9943 0.0 0
M  V30 43 O -10.446 -5.584 0.0 0
M  V30 44 C -10.6385 -7.0402 0.0 0
M  V30 45 C -12.0466 -7.6299 0.0 0
M  V30 46 C -12.2391 -9.0861 0.0 0
M  V30 47 C -13.2982 -6.7153 0.0 0
M  V30 48 C -13.6472 -9.6758 0.0 0
M  V30 49 C -14.7062 -7.3049 0.0 0
M  V30 50 C -14.8988 -8.7611 0.0 0
M  V30 51 C -13.8397 -11.1319 0.0 0
M  V30 52 C -15.9578 -6.3903 0.0 0
M  V30 53 C -16.3068 -9.3508 0.0 0
M  V30 54 C -15.2478 -11.7216 0.0 0
M  V30 55 C -12.6603 -11.9744 0.0 0
M  V30 56 C -17.3659 -6.98 0.0 0
M  V30 57 C -16.4994 -10.807 0.0 0
M  V30 58 C -17.5584 -8.4362 0.0 0
M  V30 59 C -15.4403 -13.1778 0.0 0
M  V30 60 C -12.8529 -13.4306 0.0 0
M  V30 61 C -17.9074 -11.3967 0.0 0
M  V30 62 C -14.2609 -14.0202 0.0 0
M  V30 63 C -16.8484 -13.7675 0.0 0
M  V30 64 C -18.1 -12.8529 0.0 0
M  V30 END ATOM
M  V30 BEGIN BOND
M  V30 1 2 1 2
M  V30 2 1 2 3
M  V30 3 1 4 2 CFG=3
M  V30 4 1 3 5
M  V30 5 1 4 6
M  V30 6 1 4 7
M  V30 7 1 4 8
M  V30 8 1 5 9 CFG=1
M  V30 9 1 6 10 CFG=1
M  V30 10 1 6 11
M  V30 11 1 7 12 CFG=3
M  V30 12 1 7 13
M  V30 13 1 8 14 CFG=3
M  V30 14 1 9 15
M  V30 15 1 10 16
M  V30 16 2 11 17
M  V30 17 2 12 18
M  V30 18 1 13 19 CFG=1
M  V30 19 1 13 20
M  V30 20 1 14 21 CFG=3
M  V30 21 2 15 22
M  V30 22 1 15 23
M  V30 23 2 16 24
M  V30 24 1 16 25
M  V30 25 1 17 26
M  V30 26 1 18 27
M  V30 27 2 20 28
M  V30 28 1 22 29
M  V30 29 2 23 30
M  V30 30 1 26 31 CFG=1
M  V30 31 1 26 32
M  V30 32 1 26 33
M  V30 33 1 27 34
M  V30 34 2 29 35
M  V30 35 1 34 36 CFG=3
M  V30 36 1 35 37
M  V30 37 1 37 38
M  V30 38 1 37 39
M  V30 39 2 38 40
M  V30 40 2 39 41
M  V30 41 1 41 42
M  V30 42 1 42 43
M  V30 43 1 43 44
M  V30 44 1 44 45
M  V30 45 1 45 46
M  V30 46 2 45 47
M  V30 47 2 46 48
M  V30 48 1 47 49
M  V30 49 1 48 50
M  V30 50 1 48 51
M  V30 51 2 49 52
M  V30 52 2 50 53
M  V30 53 1 51 54
M  V30 54 2 51 55
M  V30 55 1 52 56
M  V30 56 1 53 57
M  V30 57 1 53 58
M  V30 58 1 54 59
M  V30 59 1 55 60
M  V30 60 1 57 61
M  V30 61 1 59 62
M  V30 62 2 59 63
M  V30 63 2 61 64
M  V30 64 1 5 8
M  V30 65 1 14 20
M  V30 66 1 30 35
M  V30 67 1 32 34
M  V30 68 1 40 41
M  V30 69 1 49 50
M  V30 70 2 54 57
M  V30 71 2 56 58
M  V30 72 2 60 62
M  V30 73 1 63 64
M  V30 END BOND
M  V30 BEGIN COLLECTION
M  V30 MDLV30/STEABS ATOMS=(9 4 5 6 7 8 13 14 26 34)
M  V30 END COLLECTION
M  V30 END CTAB
M  END
>  <Compound>
4'-Perylene linked Cytochalasin H

>  <Origin>
Magnaporte grisea
semi-synthetic
mutasynthesis

>  <Reference>
Wang C, Lambert C, Hauser M, Deuschmann A, Zeilinger C, Rottner K, Stradal TEB, Stadler M, Skellam EJ, Cox RJ. Diversely Functionalised Cytochalasins through Mutasynthesis and Semi-Synthesis. Chemistry. 2020 Oct 27;26(60):13578-13583. doi: 10.1002/chem.202002241.

>  <Actin Disruption Activity (1h Treatment)>
+/-

>  <Reversibilty>
not tested

>  <Box ID>
1C0039

>  <Quantity>
1.1 mg

>  <Cytotoxicity in L929 mouse fibroblasts [µM]>
43.305

>  <Synonyms>
WC077A but also WC077B and WC077
compound 13

>  <Subclass>
Cytochalasin

>  <Molecular Formula>
C55H56N4O5

>  <Total Molweight>
853.073

>  <Smiles>
C[C@@H]([C@@H]([C@H](Cc(cc1)ccc1-[n]1nnc(COCc2cc3cccc(-c4c5c6cccc5ccc4)c3c-6c2)c1)N1)[C@@]([C@H]([C@@H]2C)/C=C/C[C@H](C)C[C@](C)(/C=C3)O)([C@@H]\3OC(C)=O)C1=O)C2=C

>  <Amino Acid>
Tyrosine derivative

>  <Cytotoxicity in L929 mouse Fibroblasts [µg/mL]>
36.9

>  <Cytotoxicity in KB3.1>


>  <Anti-Biofilm>
not tested

$$$$
Compound 28
Actelion Java MolfileCreator 2.0

  0  0  0  0  0  0              0 V3000
M  V30 BEGIN CTAB
M  V30 COUNTS 45 49 0 0 0
M  V30 BEGIN ATOM
M  V30 1 O 0.0 0.0 0.0 0
M  V30 2 C 0.0701 1.4911 0.0 0
M  V30 3 N -1.4209 1.5262 0.0 0
M  V30 4 C 0.3333 3.1051 0.0 0 CFG=1
M  V30 5 C -2.0349 2.8945 0.0 0 CFG=2
M  V30 6 C 2.0876 0.8946 0.0 0 CFG=2
M  V30 7 C 1.5613 3.8594 0.0 0 CFG=1
M  V30 8 C -0.9648 3.8594 0.0 0 CFG=2
M  V30 9 C -3.4735 3.298 0.0 0
M  V30 10 O 2.0525 -0.5262 0.0 0
M  V30 11 C 4.0524 0.9999 0.0 0
M  V30 12 C 2.7893 3.1752 0.0 0
M  V30 13 C 1.5262 5.3506 0.0 0 CFG=2
M  V30 14 C -0.9999 5.3506 0.0 0 CFG=1
M  V30 15 C -4.7717 2.6139 0.0 0
M  V30 16 C 0.7543 -1.2104 0.0 0
M  V30 17 C 5.2804 1.7543 0.0 0
M  V30 18 C 4.0173 3.9296 0.0 0
M  V30 19 O 2.5086 6.4032 0.0 0
M  V30 20 C 0.228 6.1049 0.0 0
M  V30 21 C -2.2981 6.1049 0.0 0
M  V30 22 C -6.0698 3.3682 0.0 0
M  V30 23 C -4.8067 1.1929 0.0 0
M  V30 24 O -0.5438 -0.4561 0.0 0
M  V30 25 C 0.7192 -2.6314 0.0 0
M  V30 26 C 6.6312 1.3508 0.0 0 CFG=2
M  V30 27 C 5.2453 3.2454 0.0 0
M  V30 28 C 0.1929 7.5961 0.0 0
M  V30 29 C -7.368 2.684 0.0 0
M  V30 30 C -6.1049 0.5087 0.0 0
M  V30 31 O 8.0347 1.1578 0.0 0
M  V30 32 C 7.4382 2.5788 0.0 0
M  V30 33 C 7.0347 0.0 0.0 0
M  V30 34 C 6.5961 3.7191 0.0 0 CFG=1
M  V30 35 C -7.4031 1.263 0.0 0
M  V30 36 C 6.9996 5.1401 0.0 0
M  V30 37 B -8.7013 0.5789 0.0 0
M  V30 38 O -8.8943 -0.842 0.0 0
M  V30 39 O -10.0696 1.1929 0.0 0
M  V30 40 C -10.3679 -1.1052 0.0 0
M  V30 41 C -11.0696 0.1578 0.0 0
M  V30 42 C -10.9819 -2.4033 0.0 0
M  V30 43 C -9.4907 -2.1928 0.0 0
M  V30 44 C -12.5608 0.3508 0.0 0
M  V30 45 C -11.8941 -1.035 0.0 0
M  V30 END ATOM
M  V30 BEGIN BOND
M  V30 1 2 1 2
M  V30 2 1 2 3
M  V30 3 1 4 2 CFG=3
M  V30 4 1 3 5
M  V30 5 1 4 6
M  V30 6 1 4 7
M  V30 7 1 4 8
M  V30 8 1 5 9 CFG=1
M  V30 9 1 6 10 CFG=1
M  V30 10 1 6 11
M  V30 11 1 7 12 CFG=3
M  V30 12 1 7 13
M  V30 13 1 8 14 CFG=3
M  V30 14 1 9 15
M  V30 15 1 10 16
M  V30 16 2 11 17
M  V30 17 2 12 18
M  V30 18 1 13 19 CFG=1
M  V30 19 1 13 20
M  V30 20 1 14 21 CFG=3
M  V30 21 2 15 22
M  V30 22 1 15 23
M  V30 23 2 16 24
M  V30 24 1 16 25
M  V30 25 1 17 26
M  V30 26 1 18 27
M  V30 27 2 20 28
M  V30 28 1 22 29
M  V30 29 2 23 30
M  V30 30 1 26 31 CFG=1
M  V30 31 1 26 32
M  V30 32 1 26 33
M  V30 33 1 27 34
M  V30 34 2 29 35
M  V30 35 1 34 36 CFG=3
M  V30 36 1 35 37
M  V30 37 1 37 38
M  V30 38 1 37 39
M  V30 39 1 38 40
M  V30 40 1 39 41
M  V30 41 1 40 42
M  V30 42 1 40 43
M  V30 43 1 41 44
M  V30 44 1 41 45
M  V30 45 1 5 8
M  V30 46 1 14 20
M  V30 47 1 30 35
M  V30 48 1 32 34
M  V30 49 1 40 41
M  V30 END BOND
M  V30 BEGIN COLLECTION
M  V30 MDLV30/STEABS ATOMS=(9 4 5 6 7 8 13 14 26 34)
M  V30 END COLLECTION
M  V30 END CTAB
M  END
>  <Compound>
4'-Pinacolborolanyl Cytochalasin H

>  <Origin>
Magnaporte grisea
semi-synthetic
mutasynthesis

>  <Reference>
Wang C, Lambert C, Hauser M, Deuschmann A, Zeilinger C, Rottner K, Stradal TEB, Stadler M, Skellam EJ, Cox RJ. Diversely Functionalised Cytochalasins through Mutasynthesis and Semi-Synthesis. Chemistry. 2020 Oct 27;26(60):13578-13583. doi: 10.1002/chem.202002241.

>  <Actin Disruption Activity (1h Treatment)>
++

>  <Reversibilty>
not tested

>  <Box ID>
2C0064

>  <Quantity>
1.26 mg

>  <Cytotoxicity in L929 mouse fibroblasts [µM]>
1.937

>  <Synonyms>
WC073
compound 23

>  <Subclass>
Cytochalasin

>  <Molecular Formula>
C36H50NO7B

>  <Total Molweight>
619.604

>  <Smiles>
C[C@@H](C([C@H](Cc1ccc(B2OC(C)(C)C(C)(C)O2)cc1)N1)[C@@]([C@H]([C@@H]2O)/C=C/C[C@H](C)C[C@](C)(/C=C3)O)(C\3OC(C)=O)C1=O)C2=C

>  <Amino Acid>
Tyrosine derivative
(p-pinacolborolanyl)

>  <Cytotoxicity in L929 mouse Fibroblasts [µg/mL]>
1.2

>  <Cytotoxicity in KB3.1>


>  <Anti-Biofilm>
not tested

$$$$
Compound 29
Actelion Java MolfileCreator 2.0

  0  0  0  0  0  0              0 V3000
M  V30 BEGIN CTAB
M  V30 COUNTS 39 42 0 0 0
M  V30 BEGIN ATOM
M  V30 1 O 0.0 0.0 0.0 0
M  V30 2 C 0.0693 1.4741 0.0 0
M  V30 3 N -1.4048 1.5088 0.0 0
M  V30 4 C 0.3295 3.0697 0.0 0 CFG=1
M  V30 5 C -2.0118 2.8616 0.0 0 CFG=2
M  V30 6 C 2.0638 0.8845 0.0 0 CFG=2
M  V30 7 C 1.5435 3.8155 0.0 0 CFG=1
M  V30 8 C -0.9538 3.8155 0.0 0 CFG=2
M  V30 9 C -3.4339 3.2605 0.0 0
M  V30 10 O 2.0291 -0.5203 0.0 0
M  V30 11 C 4.0063 0.9885 0.0 0
M  V30 12 C 2.7576 3.1391 0.0 0
M  V30 13 C 1.5088 5.2897 0.0 0 CFG=2
M  V30 14 C -0.9885 5.2897 0.0 0 CFG=1
M  V30 15 C -4.7174 2.5841 0.0 0
M  V30 16 C 0.7457 -1.1966 0.0 0
M  V30 17 C 5.2203 1.7343 0.0 0
M  V30 18 C 3.9716 3.8849 0.0 0
M  V30 19 O 2.4801 6.3303 0.0 0
M  V30 20 C 0.2254 6.0355 0.0 0
M  V30 21 C -2.2719 6.0355 0.0 0
M  V30 22 C -6.0008 3.3299 0.0 0
M  V30 23 C -4.752 1.1793 0.0 0
M  V30 24 O -0.5376 -0.4509 0.0 0
M  V30 25 C 0.711 -2.6015 0.0 0
M  V30 26 C 6.5558 1.3354 0.0 0 CFG=2
M  V30 27 C 5.1856 3.2085 0.0 0
M  V30 28 C 0.1907 7.5097 0.0 0
M  V30 29 C -7.2842 2.6535 0.0 0
M  V30 30 C -6.0355 0.5029 0.0 0
M  V30 31 O 7.9432 1.1446 0.0 0
M  V30 32 C 7.3536 2.5494 0.0 0
M  V30 33 C 6.9547 0.0 0.0 0
M  V30 34 C 6.5211 3.6768 0.0 0 CFG=1
M  V30 35 C -7.3189 1.2487 0.0 0
M  V30 36 C 6.92 5.0816 0.0 0
M  V30 37 C -8.6023 0.5723 0.0 0
M  V30 38 C -10.2499 -0.2254 0.0 0
M  V30 39 C -11.568 -0.8498 0.0 0
M  V30 END ATOM
M  V30 BEGIN BOND
M  V30 1 2 1 2
M  V30 2 1 2 3
M  V30 3 1 4 2 CFG=3
M  V30 4 1 3 5
M  V30 5 1 4 6
M  V30 6 1 4 7
M  V30 7 1 4 8
M  V30 8 1 5 9 CFG=1
M  V30 9 1 6 10 CFG=1
M  V30 10 1 6 11
M  V30 11 1 7 12 CFG=3
M  V30 12 1 7 13
M  V30 13 1 8 14 CFG=3
M  V30 14 1 9 15
M  V30 15 1 10 16
M  V30 16 2 11 17
M  V30 17 2 12 18
M  V30 18 1 13 19 CFG=1
M  V30 19 1 13 20
M  V30 20 1 14 21 CFG=3
M  V30 21 2 15 22
M  V30 22 1 15 23
M  V30 23 2 16 24
M  V30 24 1 16 25
M  V30 25 1 17 26
M  V30 26 1 18 27
M  V30 27 2 20 28
M  V30 28 1 22 29
M  V30 29 2 23 30
M  V30 30 1 26 31 CFG=1
M  V30 31 1 26 32
M  V30 32 1 26 33
M  V30 33 1 27 34
M  V30 34 2 29 35
M  V30 35 1 34 36 CFG=3
M  V30 36 1 35 37
M  V30 37 3 37 38
M  V30 38 1 38 39
M  V30 39 1 5 8
M  V30 40 1 14 20
M  V30 41 1 30 35
M  V30 42 1 32 34
M  V30 END BOND
M  V30 BEGIN COLLECTION
M  V30 MDLV30/STEABS ATOMS=(9 4 5 6 7 8 13 14 26 34)
M  V30 END COLLECTION
M  V30 END CTAB
M  END
>  <Compound>
4'-Prop-1-ynyl Cytochalsin H

>  <Origin>
Magnaporte grisea
mutasynthesis

>  <Reference>
Wang C, Lambert C, Hauser M, Deuschmann A, Zeilinger C, Rottner K, Stradal TEB, Stadler M, Skellam EJ, Cox RJ. Diversely Functionalised Cytochalasins through Mutasynthesis and Semi-Synthesis. Chemistry. 2020 Oct 27;26(60):13578-13583. doi: 10.1002/chem.202002241.

>  <Actin Disruption Activity (1h Treatment)>
+

>  <Reversibilty>
not tested

>  <Box ID>
2C0056

>  <Quantity>
available

>  <Cytotoxicity in L929 mouse fibroblasts [µM]>
5.27 

>  <Synonyms>
WC120
compound 22

>  <Subclass>
Cytochalasin

>  <Molecular Formula>
C33H41NO5

>  <Total Molweight>
531.691

>  <Smiles>
C[C@@H](C([C@H](Cc(cc1)ccc1C#CC)N1)[C@@]([C@H]([C@@H]2O)/C=C/C[C@H](C)C[C@](C)(/C=C3)O)(C\3OC(C)=O)C1=O)C2=C

>  <Amino Acid>
Tyrosine derivative
(p-prop-1-ynyl)

>  <Cytotoxicity in L929 mouse Fibroblasts [µg/mL]>
2.8

>  <Cytotoxicity in KB3.1>


>  <Anti-Biofilm>
not tested

$$$$
Compound 30
Actelion Java MolfileCreator 2.0

  0  0  0  0  0  0              0 V3000
M  V30 BEGIN CTAB
M  V30 COUNTS 96 108 0 0 0
M  V30 BEGIN ATOM
M  V30 1 S 0.0 0.0 0.0 0
M  V30 2 O 1.069 -0.873 0.0 0
M  V30 3 O -1.2116 0.9799 0.0 0
M  V30 4 O -1.461 -0.4632 0.0 0 CHG=-1
M  V30 5 C 1.3541 0.5701 0.0 0
M  V30 6 C 2.4232 -0.3029 0.0 0
M  V30 7 C 1.5501 2.1025 0.0 0
M  V30 8 C 2.1203 -1.7283 0.0 0
M  V30 9 C 3.7774 0.2672 0.0 0
M  V30 10 C 2.9043 2.6727 0.0 0
M  V30 11 C 0.6592 -2.1916 0.0 0
M  V30 12 C 3.1894 -2.6014 0.0 0
M  V30 13 C 3.9734 1.7996 0.0 0
M  V30 14 C 0.3563 -3.617 0.0 0
M  V30 15 C -0.5523 -1.2116 0.0 0
M  V30 16 C 2.8865 -4.0268 0.0 0
M  V30 17 C 4.5436 -2.0312 0.0 0
M  V30 18 S 5.3276 2.3698 0.0 0
M  V30 19 O 1.4254 -4.4901 0.0 0
M  V30 20 C -1.1047 -4.0803 0.0 0
M  V30 21 C -2.0134 -1.6749 0.0 0
M  V30 22 C 3.9556 -4.8999 0.0 0
M  V30 23 C 5.6127 -2.9043 0.0 0
M  V30 24 O 6.3966 1.4967 0.0 0
M  V30 25 O 4.1159 3.3498 0.0 0
M  V30 26 N 5.5236 3.9021 0.0 0
M  V30 27 C -2.3163 -3.1003 0.0 0
M  V30 28 C -1.4076 -5.5057 0.0 0
M  V30 29 C -3.225 -0.6949 0.0 0
M  V30 30 C 5.3097 -4.3297 0.0 0
M  V30 31 C 3.6527 -6.3254 0.0 0
M  V30 32 C 6.9668 -2.3341 0.0 0
M  V30 33 C 6.8777 4.4723 0.0 0
M  V30 34 N -3.7774 -3.5636 0.0 0 CHG=1
M  V30 35 C -2.8687 -5.969 0.0 0
M  V30 36 C -4.6861 -1.1581 0.0 0
M  V30 37 N 6.3788 -5.2028 0.0 0
M  V30 38 C 4.7217 -7.1985 0.0 0
M  V30 39 C 8.0359 -3.2072 0.0 0
M  V30 40 C 7.0737 6.0047 0.0 0
M  V30 41 C -4.0803 -4.989 0.0 0
M  V30 42 C -4.989 -2.5836 0.0 0
M  V30 43 C 6.0759 -6.6283 0.0 0
M  V30 44 C 7.733 -4.6327 0.0 0
M  V30 45 O 8.4279 6.5748 0.0 0
M  V30 46 C 8.6239 8.1072 0.0 0
M  V30 47 C 9.9781 8.6774 0.0 0
M  V30 48 O 10.1741 10.2097 0.0 0
M  V30 49 C 11.5283 10.7799 0.0 0
M  V30 50 C 11.7243 12.3123 0.0 0
M  V30 51 O 13.0784 12.8824 0.0 0
M  V30 52 C 13.2744 14.4148 0.0 0
M  V30 53 C 14.6286 14.985 0.0 0
M  V30 54 O 14.8246 16.5173 0.0 0
M  V30 55 C 16.3748 16.8381 0.0 0
M  V30 56 C 16.9093 18.2635 0.0 0
M  V30 57 N 16.1253 19.6177 0.0 0
M  V30 58 C 18.317 18.6199 0.0 0
M  V30 59 N 17.0519 20.7759 0.0 0
M  V30 60 N 18.4239 20.17 0.0 0
M  V30 61 C 19.6711 20.954 0.0 0
M  V30 62 C 19.6177 22.5042 0.0 0
M  V30 63 C 20.9184 20.277 0.0 0
M  V30 64 C 20.8649 23.2882 0.0 0
M  V30 65 C 22.1657 21.0609 0.0 0
M  V30 66 C 22.1122 22.6111 0.0 0
M  V30 67 C 23.3595 23.3951 0.0 0
M  V30 68 C 24.7671 23.0744 0.0 0 CFG=2
M  V30 69 N 25.3017 21.7559 0.0 0
M  V30 70 C 25.8006 24.1078 0.0 0 CFG=1
M  V30 71 C 26.7449 21.8093 0.0 0
M  V30 72 C 27.0478 23.4308 0.0 0 CFG=2
M  V30 73 C 25.7471 25.658 0.0 0 CFG=1
M  V30 74 O 26.5846 20.366 0.0 0
M  V30 75 C 28.8296 21.1857 0.0 0 CFG=2
M  V30 76 C 28.2951 24.2148 0.0 0 CFG=1
M  V30 77 C 26.9944 26.442 0.0 0
M  V30 78 C 24.3929 26.442 0.0 0
M  V30 79 O 28.7762 19.7424 0.0 0
M  V30 80 C 30.8253 21.3104 0.0 0
M  V30 81 C 29.5424 23.5377 0.0 0
M  V30 82 C 28.2416 25.7649 0.0 0 CFG=1
M  V30 83 C 26.9409 27.9922 0.0 0
M  V30 84 C 27.422 19.0653 0.0 0
M  V30 85 C 32.0725 22.0944 0.0 0
M  V30 86 C 30.7896 24.3217 0.0 0
M  V30 87 O 29.2216 26.8518 0.0 0
M  V30 88 O 26.0678 19.8493 0.0 0
M  V30 89 C 27.3686 17.6221 0.0 0
M  V30 90 C 33.4445 21.7024 0.0 0 CFG=2
M  V30 91 C 32.0369 23.6446 0.0 0
M  V30 92 O 34.87 21.5242 0.0 0
M  V30 93 C 34.2463 22.9853 0.0 0
M  V30 94 C 33.8365 20.3304 0.0 0
M  V30 95 C 33.4089 24.1435 0.0 0 CFG=1
M  V30 96 C 33.8009 25.6224 0.0 0
M  V30 END ATOM
M  V30 BEGIN BOND
M  V30 1 2 1 2
M  V30 2 2 1 3
M  V30 3 1 1 4
M  V30 4 1 1 5
M  V30 5 2 5 6
M  V30 6 1 5 7
M  V30 7 1 6 8
M  V30 8 1 6 9
M  V30 9 2 7 10
M  V30 10 2 8 11
M  V30 11 1 8 12
M  V30 12 2 9 13
M  V30 13 1 11 14
M  V30 14 1 11 15
M  V30 15 2 12 16
M  V30 16 1 12 17
M  V30 17 1 13 18
M  V30 18 1 14 19
M  V30 19 2 14 20
M  V30 20 2 15 21
M  V30 21 1 16 22
M  V30 22 2 17 23
M  V30 23 2 18 24
M  V30 24 2 18 25
M  V30 25 1 18 26
M  V30 26 1 20 27
M  V30 27 1 20 28
M  V30 28 1 21 29
M  V30 29 2 22 30
M  V30 30 1 22 31
M  V30 31 1 23 32
M  V30 32 1 26 33
M  V30 33 2 27 34
M  V30 34 1 28 35
M  V30 35 1 29 36
M  V30 36 1 30 37
M  V30 37 1 31 38
M  V30 38 1 32 39
M  V30 39 1 33 40
M  V30 40 1 34 41
M  V30 41 1 34 42
M  V30 42 1 37 43
M  V30 43 1 37 44
M  V30 44 1 40 45
M  V30 45 1 45 46
M  V30 46 1 46 47
M  V30 47 1 47 48
M  V30 48 1 48 49
M  V30 49 1 49 50
M  V30 50 1 50 51
M  V30 51 1 51 52
M  V30 52 1 52 53
M  V30 53 1 53 54
M  V30 54 1 54 55
M  V30 55 1 55 56
M  V30 56 1 56 57
M  V30 57 2 56 58
M  V30 58 2 57 59
M  V30 59 1 58 60
M  V30 60 1 60 61
M  V30 61 2 61 62
M  V30 62 1 61 63
M  V30 63 1 62 64
M  V30 64 2 63 65
M  V30 65 2 64 66
M  V30 66 1 66 67
M  V30 67 1 68 67 CFG=1
M  V30 68 1 68 69
M  V30 69 1 68 70
M  V30 70 1 69 71
M  V30 71 1 70 72
M  V30 72 1 70 73 CFG=3
M  V30 73 2 71 74
M  V30 74 1 72 75
M  V30 75 1 72 76
M  V30 76 1 73 77
M  V30 77 1 73 78 CFG=3
M  V30 78 1 75 79 CFG=1
M  V30 79 1 75 80
M  V30 80 1 76 81 CFG=3
M  V30 81 1 76 82
M  V30 82 2 77 83
M  V30 83 1 79 84
M  V30 84 2 80 85
M  V30 85 2 81 86
M  V30 86 1 82 87 CFG=1
M  V30 87 2 84 88
M  V30 88 1 84 89
M  V30 89 1 85 90
M  V30 90 1 86 91
M  V30 91 1 90 92 CFG=1
M  V30 92 1 90 93
M  V30 93 1 90 94
M  V30 94 1 91 95
M  V30 95 1 95 96 CFG=3
M  V30 96 1 10 13
M  V30 97 1 16 19
M  V30 98 1 21 27
M  V30 99 1 23 30
M  V30 100 1 35 41
M  V30 101 1 36 42
M  V30 102 1 38 43
M  V30 103 1 39 44
M  V30 104 1 59 60
M  V30 105 1 65 66
M  V30 106 1 72 71 CFG=3
M  V30 107 1 77 82
M  V30 108 1 93 95
M  V30 END BOND
M  V30 BEGIN COLLECTION
M  V30 MDLV30/STEABS ATOMS=(9 68 70 72 73 75 76 82 90 95)
M  V30 END COLLECTION
M  V30 END CTAB
M  END
>  <Compound>
4'-TexRed-linked cytochalasin H

>  <Origin>
Magnaporte grisea
semi-synthetic
mutasynthesis

>  <Reference>
Wang C, Lambert C, Hauser M, Deuschmann A, Zeilinger C, Rottner K, Stradal TEB, Stadler M, Skellam EJ, Cox RJ. Diversely Functionalised Cytochalasins through Mutasynthesis and Semi-Synthesis. Chemistry. 2020 Oct 27;26(60):13578-13583. doi: 10.1002/chem.202002241.

>  <Actin Disruption Activity (1h Treatment)>
+++

>  <Reversibilty>
not tested

>  <Box ID>
2C0051

>  <Quantity>
0.95 mg

>  <Cytotoxicity in L929 mouse fibroblasts [µM]>
0.096

>  <Synonyms>
WC131
compound 17

>  <Subclass>
Cytochalasin

>  <Molecular Formula>
C72H87N7O15S2

>  <Total Molweight>
1354.65

>  <Smiles>
C[C@@H](C([C@H](Cc(cc1)ccc1-[n]1nnc(COCCOCCOCCOCCNS(c(cc2)cc(C(c(cc3c4c5CCCN4CCC3)c5O3)=C(C=C4CCC5)C3=C3C4=[N+]5CCC3)c2S([O-])(=O)=O)(=O)=O)c1)N1)[C@@]([C@H]([C@@H]2O)/C=C/C[C@H](C)C[C@](C)(/C=C3)O)(C\3OC(C)=O)C1=O)C2=C

>  <Amino Acid>
Tyrosine derivative

>  <Cytotoxicity in L929 mouse Fibroblasts [µg/mL]>
0.13

>  <Cytotoxicity in KB3.1>


>  <Anti-Biofilm>
not tested

$$$$
Compound 31
Actelion Java MolfileCreator 2.0

  0  0  0  0  0  0              0 V3000
M  V30 BEGIN CTAB
M  V30 COUNTS 70 76 0 0 0
M  V30 BEGIN ATOM
M  V30 1 S 0.0 0.0 0.0 0
M  V30 2 C -0.5569 -1.2945 0.0 0
M  V30 3 C 1.3848 -0.0451 0.0 0
M  V30 4 C 0.5117 -2.1374 0.0 0 CFG=2
M  V30 5 C -1.9869 -1.6106 0.0 0
M  V30 6 C 1.7009 -1.3848 0.0 0 CFG=1
M  V30 7 N 0.8278 -3.4771 0.0 0
M  V30 8 C -3.0556 -0.5268 0.0 0
M  V30 9 N 2.7696 -2.2277 0.0 0
M  V30 10 C 2.2127 -3.5222 0.0 0
M  V30 11 C -2.7244 0.9031 0.0 0
M  V30 12 O 2.9201 -4.6963 0.0 0
M  V30 13 C -1.3848 1.3095 0.0 0
M  V30 14 C -1.0536 2.7395 0.0 0
M  V30 15 O -2.1223 3.8233 0.0 0
M  V30 16 N 0.2859 3.1459 0.0 0
M  V30 17 C 2.1825 3.3867 0.0 0
M  V30 18 C 3.462 4.907 0.0 0
M  V30 19 O 5.3435 4.5458 0.0 0
M  V30 20 C 6.623 6.0661 0.0 0
M  V30 21 C 8.5045 5.7048 0.0 0
M  V30 22 O 9.784 7.2251 0.0 0
M  V30 23 C 11.6656 6.8638 0.0 0
M  V30 24 C 12.945 8.3841 0.0 0
M  V30 25 O 14.8266 8.0229 0.0 0
M  V30 26 C 16.106 9.5432 0.0 0
M  V30 27 C 17.9876 9.1819 0.0 0
M  V30 28 N 19.267 10.7022 0.0 0
M  V30 29 N 19.7938 9.4378 0.0 0
M  V30 30 C 20.2906 11.7107 0.0 0
M  V30 31 N 21.1787 9.6335 0.0 0
M  V30 32 C 21.4948 11.0484 0.0 0
M  V30 33 C 22.6688 12.1924 0.0 0
M  V30 34 O 24.0236 11.9515 0.0 0
M  V30 35 C 24.9267 13.0654 0.0 0
M  V30 36 C 24.445 14.4803 0.0 0
M  V30 37 C 26.2814 12.8246 0.0 0
M  V30 38 C 25.3482 15.5942 0.0 0
M  V30 39 C 27.1695 13.9385 0.0 0
M  V30 40 C 26.7029 15.3534 0.0 0
M  V30 41 C 27.606 16.4673 0.0 0
M  V30 42 C 28.9607 16.2264 0.0 0 CFG=2
M  V30 43 N 29.4876 14.962 0.0 0
M  V30 44 C 29.9843 17.25 0.0 0 CFG=1
M  V30 45 C 30.8724 15.1577 0.0 0
M  V30 46 C 31.1885 16.5877 0.0 0 CFG=2
M  V30 47 C 29.9392 18.7251 0.0 0 CFG=1
M  V30 48 O 30.7219 14.0288 0.0 0
M  V30 49 C 31.1433 15.2029 0.0 0 CFG=2
M  V30 50 C 32.3927 17.3403 0.0 0 CFG=1
M  V30 51 C 31.1433 19.4777 0.0 0
M  V30 52 C 28.6446 19.4777 0.0 0
M  V30 53 O 31.5347 13.8933 0.0 0
M  V30 54 C 32.3475 14.5406 0.0 0
M  V30 55 C 33.5969 16.678 0.0 0
M  V30 56 C 32.3475 18.8154 0.0 0 CFG=1
M  V30 57 C 31.0982 20.9529 0.0 0
M  V30 58 C 30.5262 12.8547 0.0 0
M  V30 59 C 33.5517 15.2932 0.0 0
M  V30 60 C 34.6807 17.5962 0.0 0
M  V30 61 O 33.5517 19.5681 0.0 0
M  V30 62 O 29.0812 13.1858 0.0 0
M  V30 63 C 30.9176 11.5301 0.0 0
M  V30 64 C 34.6355 14.4653 0.0 0 CFG=2
M  V30 65 C 36.0354 17.3252 0.0 0
M  V30 66 O 35.2978 13.1557 0.0 0
M  V30 67 C 35.9902 14.8266 0.0 0
M  V30 68 C 33.4765 13.6073 0.0 0
M  V30 69 C 36.6074 16.0759 0.0 0 CFG=1
M  V30 70 C 37.9922 16.1211 0.0 0
M  V30 END ATOM
M  V30 BEGIN BOND
M  V30 1 1 1 2
M  V30 2 1 1 3
M  V30 3 1 2 4
M  V30 4 1 2 5
M  V30 5 1 3 6
M  V30 6 1 4 7 CFG=3
M  V30 7 1 5 8
M  V30 8 1 6 9 CFG=3
M  V30 9 1 7 10
M  V30 10 1 8 11
M  V30 11 2 10 12
M  V30 12 1 11 13
M  V30 13 1 13 14
M  V30 14 2 14 15
M  V30 15 1 14 16
M  V30 16 1 16 17
M  V30 17 1 17 18
M  V30 18 1 18 19
M  V30 19 1 19 20
M  V30 20 1 20 21
M  V30 21 1 21 22
M  V30 22 1 22 23
M  V30 23 1 23 24
M  V30 24 1 24 25
M  V30 25 1 25 26
M  V30 26 1 26 27
M  V30 27 1 27 28
M  V30 28 1 28 29
M  V30 29 1 28 30
M  V30 30 2 29 31
M  V30 31 2 30 32
M  V30 32 1 32 33
M  V30 33 1 33 34
M  V30 34 1 34 35
M  V30 35 2 35 36
M  V30 36 1 35 37
M  V30 37 1 36 38
M  V30 38 2 37 39
M  V30 39 2 38 40
M  V30 40 1 40 41
M  V30 41 1 42 41 CFG=1
M  V30 42 1 42 43
M  V30 43 1 42 44
M  V30 44 1 43 45
M  V30 45 1 44 46
M  V30 46 1 44 47 CFG=3
M  V30 47 2 45 48
M  V30 48 1 46 49
M  V30 49 1 46 50
M  V30 50 1 47 51
M  V30 51 1 47 52 CFG=3
M  V30 52 1 49 53 CFG=1
M  V30 53 1 49 54
M  V30 54 1 50 55 CFG=3
M  V30 55 1 50 56
M  V30 56 2 51 57
M  V30 57 1 53 58
M  V30 58 2 54 59
M  V30 59 2 55 60
M  V30 60 1 56 61 CFG=1
M  V30 61 2 58 62
M  V30 62 1 58 63
M  V30 63 1 59 64
M  V30 64 1 60 65
M  V30 65 1 64 66 CFG=1
M  V30 66 1 64 67
M  V30 67 1 64 68
M  V30 68 1 65 69
M  V30 69 1 69 70 CFG=3
M  V30 70 1 4 6
M  V30 71 1 9 10
M  V30 72 1 31 32
M  V30 73 1 39 40
M  V30 74 1 46 45 CFG=3
M  V30 75 1 51 56
M  V30 76 1 67 69
M  V30 END BOND
M  V30 BEGIN COLLECTION
M  V30 MDLV30/STEABS ATOMS=(11 4 6 42 44 46 47 49 50 56 64 69)
M  V30 END COLLECTION
M  V30 END CTAB
M  END
>  <Compound>
4'O-biotin-linked cytochalasin H

>  <Origin>
Magnaporte grisea
semi-synthetic
mutasynthesis

>  <Reference>
Wang C, Lambert C, Hauser M, Deuschmann A, Zeilinger C, Rottner K, Stradal TEB, Stadler M, Skellam EJ, Cox RJ. Diversely Functionalised Cytochalasins through Mutasynthesis and Semi-Synthesis. Chemistry. 2020 Oct 27;26(60):13578-13583. doi: 10.1002/chem.202002241.

>  <Actin Disruption Activity (1h Treatment)>
-

>  <Reversibilty>
not tested

>  <Box ID>
2C0052

>  <Quantity>
0.61 mg

>  <Cytotoxicity in L929 mouse fibroblasts [µM]>
no inhibition

>  <Synonyms>
WC 117
Compound 9

>  <Subclass>
Cytochalasin

>  <Molecular Formula>
C52H75N7O10S

>  <Total Molweight>
990.273

>  <Smiles>
C[C@@H]([C@@H]([C@H](Cc(cc1)ccc1OCc1c[n](CCOCCOCCOCCNC(CCCCC([C@H]2N3)SC[C@@H]2NC3=O)=O)nn1)N1)[C@@]([C@H]([C@@H]2C)/C=C/C[C@H](C)C[C@](C)(/C=C3)O)([C@@H]\3OC(C)=O)C1=O)C2=C

>  <Amino Acid>
Tyrosine derivative

>  <Cytotoxicity in L929 mouse Fibroblasts [µg/mL]>
no inhibition

>  <Cytotoxicity in KB3.1>


>  <Anti-Biofilm>
not tested

$$$$
Compound 32
Actelion Java MolfileCreator 2.0

  0  0  0  0  0  0              0 V3000
M  V30 BEGIN CTAB
M  V30 COUNTS 63 71 0 0 0
M  V30 BEGIN ATOM
M  V30 1 O 0.0 0.0 0.0 0
M  V30 2 C -0.194 -1.4674 0.0 0
M  V30 3 O -1.6129 -2.0616 0.0 0
M  V30 4 C 0.9944 -2.3163 0.0 0
M  V30 5 C -1.8069 -3.529 0.0 0
M  V30 6 C 2.3405 -1.6493 0.0 0
M  V30 7 C 0.8004 -3.7837 0.0 0
M  V30 8 C -0.6184 -4.3779 0.0 0
M  V30 9 C -3.2258 -4.1232 0.0 0
M  V30 10 O 3.529 -2.4982 0.0 0
M  V30 11 O 2.4618 -0.1091 0.0 0
M  V30 12 C -0.8125 -5.8453 0.0 0
M  V30 13 C -3.4198 -5.5906 0.0 0
M  V30 14 C -4.4871 -3.2016 0.0 0
M  V30 15 C 3.8079 0.5578 0.0 0
M  V30 16 C -2.2314 -6.4395 0.0 0
M  V30 17 N -4.8387 -6.1849 0.0 0
M  V30 18 C -5.9059 -3.7958 0.0 0
M  V30 19 C 3.9292 2.098 0.0 0
M  V30 20 C -2.4254 -7.907 0.0 0
M  V30 21 C -6.1 -5.2632 0.0 0
M  V30 22 C -5.0328 -7.6523 0.0 0
M  V30 23 N 2.7771 3.1409 0.0 0
M  V30 24 C 5.2026 2.8862 0.0 0
M  V30 25 C -3.8443 -8.5012 0.0 0
M  V30 26 N 3.3713 4.5598 0.0 0
M  V30 27 N 4.8509 4.4022 0.0 0
M  V30 28 C 5.8211 5.5543 0.0 0
M  V30 29 C 5.3117 7.0338 0.0 0
M  V30 30 C 7.2642 5.2753 0.0 0
M  V30 31 C 6.2819 8.1859 0.0 0
M  V30 32 C 8.2344 6.4274 0.0 0
M  V30 33 C 7.725 7.907 0.0 0
M  V30 34 C 8.6952 9.059 0.0 0
M  V30 35 C 10.1384 8.7801 0.0 0 CFG=2
M  V30 36 N 10.7326 7.434 0.0 0
M  V30 37 C 11.2177 9.8231 0.0 0 CFG=1
M  V30 38 C 12.2 7.628 0.0 0
M  V30 39 C 12.4911 9.0954 0.0 0 CFG=2
M  V30 40 C 11.1813 11.3754 0.0 0 CFG=1
M  V30 41 O 12.0424 6.4395 0.0 0
M  V30 42 C 12.4547 7.6159 0.0 0 CFG=2
M  V30 43 C 13.7644 9.8837 0.0 0 CFG=1
M  V30 44 C 12.4547 12.1636 0.0 0
M  V30 45 C 9.8352 12.1636 0.0 0
M  V30 46 O 12.9034 6.2213 0.0 0
M  V30 47 C 13.7281 6.8761 0.0 0
M  V30 48 C 15.0378 9.1561 0.0 0
M  V30 49 C 13.7281 11.436 0.0 0 CFG=1
M  V30 50 C 12.4183 13.7159 0.0 0
M  V30 51 C 11.8726 5.1298 0.0 0
M  V30 52 C 15.0014 7.6644 0.0 0
M  V30 53 C 16.1778 10.1262 0.0 0
M  V30 54 C 15.0014 12.2243 0.0 0
M  V30 55 O 10.3567 5.4815 0.0 0
M  V30 56 C 12.3213 3.723 0.0 0
M  V30 57 C 16.1414 6.767 0.0 0 CFG=2
M  V30 58 C 17.6209 9.8231 0.0 0
M  V30 59 O 16.8812 5.3723 0.0 0
M  V30 60 C 17.5845 7.1429 0.0 0
M  V30 61 C 14.9408 5.8453 0.0 0
M  V30 62 C 18.2515 8.5012 0.0 0 CFG=1
M  V30 63 C 19.7311 8.5376 0.0 0
M  V30 END ATOM
M  V30 BEGIN BOND
M  V30 1 2 1 2
M  V30 2 1 2 3
M  V30 3 1 2 4
M  V30 4 1 3 5
M  V30 5 1 4 6
M  V30 6 2 4 7
M  V30 7 2 5 8
M  V30 8 1 5 9
M  V30 9 2 6 10
M  V30 10 1 6 11
M  V30 11 1 8 12
M  V30 12 2 9 13
M  V30 13 1 9 14
M  V30 14 1 11 15
M  V30 15 2 12 16
M  V30 16 1 13 17
M  V30 17 1 14 18
M  V30 18 1 15 19
M  V30 19 1 16 20
M  V30 20 1 17 21
M  V30 21 1 17 22
M  V30 22 1 19 23
M  V30 23 2 19 24
M  V30 24 1 20 25
M  V30 25 2 23 26
M  V30 26 1 24 27
M  V30 27 1 27 28
M  V30 28 2 28 29
M  V30 29 1 28 30
M  V30 30 1 29 31
M  V30 31 2 30 32
M  V30 32 2 31 33
M  V30 33 1 33 34
M  V30 34 1 35 34 CFG=1
M  V30 35 1 35 36
M  V30 36 1 35 37
M  V30 37 1 36 38
M  V30 38 1 37 39
M  V30 39 1 37 40 CFG=3
M  V30 40 2 38 41
M  V30 41 1 39 42
M  V30 42 1 39 43
M  V30 43 1 40 44
M  V30 44 1 40 45 CFG=3
M  V30 45 1 42 46 CFG=1
M  V30 46 1 42 47
M  V30 47 1 43 48 CFG=3
M  V30 48 1 43 49
M  V30 49 2 44 50
M  V30 50 1 46 51
M  V30 51 2 47 52
M  V30 52 2 48 53
M  V30 53 1 49 54 CFG=1
M  V30 54 2 51 55
M  V30 55 1 51 56
M  V30 56 1 52 57
M  V30 57 1 53 58
M  V30 58 1 57 59 CFG=1
M  V30 59 1 57 60
M  V30 60 1 57 61
M  V30 61 1 58 62
M  V30 62 1 62 63 CFG=3
M  V30 63 1 7 8
M  V30 64 1 13 16
M  V30 65 1 18 21
M  V30 66 1 22 25
M  V30 67 1 26 27
M  V30 68 1 32 33
M  V30 69 1 39 38 CFG=3
M  V30 70 1 44 49
M  V30 71 1 60 62
M  V30 END BOND
M  V30 BEGIN COLLECTION
M  V30 MDLV30/STEABS ATOMS=(9 35 37 39 40 42 43 49 57 62)
M  V30 END COLLECTION
M  V30 END CTAB
M  END
>  <Compound>
4-Coumarin dye-linked Cytoclasin H

>  <Origin>
Magnaporte grisea
semi-synthetic
mutasynthesis

>  <Reference>
Wang C, Lambert C, Hauser M, Deuschmann A, Zeilinger C, Rottner K, Stradal TEB, Stadler M, Skellam EJ, Cox RJ. Diversely Functionalised Cytochalasins through Mutasynthesis and Semi-Synthesis. Chemistry. 2020 Oct 27;26(60):13578-13583. doi: 10.1002/chem.202002241.

>  <Actin Disruption Activity (1h Treatment)>
++

>  <Reversibilty>
+

>  <Box ID>
1C0038

>  <Quantity>
available

>  <Cytotoxicity in L929 mouse fibroblasts [µM]>
2.799

>  <Synonyms>
WC090
compound 15

>  <Subclass>
Cytochalasin

>  <Molecular Formula>
C50H57N5O8

>  <Total Molweight>
856.03

>  <Smiles>
C[C@@H]([C@@H]([C@H](Cc(cc1)ccc1-[n]1nnc(COC(C2=Cc(cc3c4c5CCCN4CCC3)c5OC2=O)=O)c1)N1)[C@@]([C@H]([C@@H]2C)/C=C/C[C@H](C)C[C@](C)(/C=C3)O)([C@@H]\3OC(C)=O)C1=O)C2=C

>  <Amino Acid>
Tyrosine derivative

>  <Cytotoxicity in L929 mouse Fibroblasts [µg/mL]>
2.4

>  <Cytotoxicity in KB3.1>


>  <Anti-Biofilm>
not tested

$$$$
Compound 33
Actelion Java MolfileCreator 2.0

  0  0  0  0  0  0              0 V3000
M  V30 BEGIN CTAB
M  V30 COUNTS 39 43 0 0 0
M  V30 BEGIN ATOM
M  V30 1 O 0.0 0.0 0.0 0
M  V30 2 C -1.0105 1.1529 0.0 0
M  V30 3 C -2.7043 0.8255 0.0 0 CFG=2
M  V30 4 C -0.4839 2.7186 0.0 0 CFG=2
M  V30 5 O -1.4233 -0.7686 0.0 0
M  V30 6 C -4.0138 1.5941 0.0 0 CFG=2
M  V30 7 C -2.7613 -0.5693 0.0 0
M  V30 8 C -1.5941 3.8003 0.0 0
M  V30 9 C 1.1386 2.7897 0.0 0
M  V30 10 O -4.0708 0.2989 0.0 0
M  V30 11 C -5.3233 0.9394 0.0 0 CFG=1
M  V30 12 C -2.8324 3.843 0.0 0
M  V30 13 C -6.3054 1.4091 0.0 0 CFG=1
M  V30 14 C -4.1419 3.1883 0.0 0
M  V30 15 O -6.3624 -0.2135 0.0 0
M  V30 16 C -6.6897 3.231 0.0 0 CFG=1
M  V30 17 C -5.4514 3.9569 0.0 0 CFG=2
M  V30 18 C -5.4514 -1.1244 0.0 0
M  V30 19 C -7.4726 1.466 0.0 0
M  V30 20 C -7.9992 3.9996 0.0 0 CFG=1
M  V30 21 C -5.5083 5.4656 0.0 0 CFG=2
M  V30 22 O -4.1562 -0.8967 0.0 0
M  V30 23 C -6.1773 -2.2489 0.0 0
M  V30 24 O -7.5295 -0.1138 0.0 0
M  V30 25 N -9.1379 1.893 0.0 0
M  V30 26 C -8.0562 5.5083 0.0 0 CFG=1
M  V30 27 C -9.3087 3.3448 0.0 0 CFG=1
M  V30 28 O -4.3127 6.2343 0.0 0
M  V30 29 C -6.8178 6.2343 0.0 0 CFG=2
M  V30 30 C -9.3656 6.277 0.0 0
M  V30 31 C -10.6182 4.1135 0.0 0
M  V30 32 O -5.6934 6.9602 0.0 0
M  V30 33 C -7.8427 7.2591 0.0 0
M  V30 34 C -11.9277 3.4587 0.0 0
M  V30 35 C -13.2372 4.2273 0.0 0
M  V30 36 C -11.9846 2.0638 0.0 0
M  V30 37 C -14.5467 3.5726 0.0 0
M  V30 38 C -13.2941 1.4091 0.0 0
M  V30 39 C -14.6036 2.1777 0.0 0
M  V30 END ATOM
M  V30 BEGIN BOND
M  V30 1 2 1 2
M  V30 2 1 2 3
M  V30 3 1 2 4
M  V30 4 1 3 5 CFG=3
M  V30 5 1 3 6
M  V30 6 1 3 7
M  V30 7 1 4 8
M  V30 8 1 4 9 CFG=3
M  V30 9 1 6 10 CFG=1
M  V30 10 1 6 11
M  V30 11 1 8 12
M  V30 12 1 11 13
M  V30 13 2 12 14
M  V30 14 1 13 15 CFG=1
M  V30 15 1 13 16
M  V30 16 1 17 14 CFG=3
M  V30 17 1 15 18
M  V30 18 1 16 19 CFG=3
M  V30 19 1 16 20
M  V30 20 1 17 21
M  V30 21 2 18 22
M  V30 22 1 18 23
M  V30 23 2 19 24
M  V30 24 1 19 25
M  V30 25 1 20 26 CFG=3
M  V30 26 1 20 27
M  V30 27 1 21 28 CFG=1
M  V30 28 1 21 29
M  V30 29 1 26 30 CFG=3
M  V30 30 1 27 31 CFG=1
M  V30 31 1 29 32 CFG=3
M  V30 32 1 29 33
M  V30 33 1 31 34
M  V30 34 2 34 35
M  V30 35 1 34 36
M  V30 36 1 35 37
M  V30 37 2 36 38
M  V30 38 2 37 39
M  V30 39 1 11 10 CFG=1
M  V30 40 1 16 17
M  V30 41 1 25 27
M  V30 42 1 26 29
M  V30 43 1 38 39
M  V30 END BOND
M  V30 BEGIN COLLECTION
M  V30 MDLV30/STEABS ATOMS=(12 3 4 6 11 13 16 17 20 21 26 27 29)
M  V30 END COLLECTION
M  V30 END CTAB
M  END
>  <Compound>
6-epi-19-20-epoxycytochalasin P

>  <Origin>
Xylaria karyophthora

>  <Reference>
Lambert C, Shao L, Zeng H, Surup F, Saetang P, Aime MC, Husbands DR, Rottner K, Stradal TEB, Stadler M. Cytochalasans produced by Xylaria karyophthora and their biological activities. Mycologia. 2023 May-Jun;115(3):277-287. doi: 10.1080/00275514.2023.2188868. Epub 2023 Apr 5. PMID: 37017575.

>  <Actin Disruption Activity (1h Treatment)>
-

>  <Reversibilty>
not tested

>  <Box ID>
1C0033

>  <Quantity>
available

>  <Cytotoxicity in L929 mouse fibroblasts [µM]>
40.6

>  <Synonyms>
P13-1-2 NMR499
compound 2

>  <Subclass>
Cytochalasin

>  <Molecular Formula>
C30H39NO8

>  <Total Molweight>
541.639

>  <Smiles>
C[C@@H]([C@@H]([C@H](Cc1ccccc1)N1)[C@@]([C@H]([C@@H]2O)/C=C/C[C@H](C)C([C@@](C)([C@@H]3O[C@H]33)O)=O)([C@@H]3OC(C)=O)C1=O)[C@]2(C)O

>  <Amino Acid>
Phenylalanine

>  <Cytotoxicity in L929 mouse Fibroblasts [µg/mL]>
22 

>  <Cytotoxicity in KB3.1>


>  <Anti-Biofilm>
-

$$$$
Compound 34
Actelion Java MolfileCreator 2.0

  0  0  0  0  0  0              0 V3000
M  V30 BEGIN CTAB
M  V30 COUNTS 38 42 0 0 0
M  V30 BEGIN ATOM
M  V30 1 O 0.0 0.0 0.0 0
M  V30 2 C -1.001 1.142 0.0 0
M  V30 3 C -2.6788 0.8036 0.0 0 CFG=2
M  V30 4 C -0.4652 2.6929 0.0 0 CFG=2
M  V30 5 O -1.3817 -0.8036 0.0 0
M  V30 6 C -3.9759 1.5508 0.0 0 CFG=2
M  V30 7 C -2.7211 -0.6062 0.0 0
M  V30 8 C -1.5649 3.7644 0.0 0
M  V30 9 C 1.1702 2.7493 0.0 0
M  V30 10 O -4.0182 0.2396 0.0 0
M  V30 11 C -5.273 0.8882 0.0 0 CFG=1
M  V30 12 C -2.7916 3.7926 0.0 0
M  V30 13 C -6.2458 1.3394 0.0 0 CFG=1
M  V30 14 C -4.0887 3.1299 0.0 0
M  V30 15 O -6.2881 -0.296 0.0 0
M  V30 16 C -6.6124 3.144 0.0 0 CFG=1
M  V30 17 C -5.3858 3.8772 0.0 0 CFG=2
M  V30 18 C -5.3576 -1.2266 0.0 0
M  V30 19 C -7.3738 1.3676 0.0 0
M  V30 20 C -7.9095 3.8913 0.0 0 CFG=1
M  V30 21 C -5.4281 5.3717 0.0 0
M  V30 22 O -4.0464 -1.0151 0.0 0
M  V30 23 C -6.0625 -2.3686 0.0 0
M  V30 24 O -7.4161 -0.2255 0.0 0
M  V30 25 N -9.0234 1.7764 0.0 0
M  V30 26 C -7.9518 5.3858 0.0 0 CFG=1
M  V30 27 C -9.2066 3.2286 0.0 0 CFG=1
M  V30 28 O -4.2156 6.1189 0.0 0
M  V30 29 C -6.7252 6.1189 0.0 0 CFG=1
M  V30 30 C -9.2489 6.133 0.0 0
M  V30 31 C -10.5038 3.9759 0.0 0
M  V30 32 C -6.7675 7.6134 0.0 0
M  V30 33 C -11.8009 3.3132 0.0 0
M  V30 34 C -13.098 4.0605 0.0 0
M  V30 35 C -11.8432 1.9033 0.0 0
M  V30 36 C -14.3951 3.3978 0.0 0
M  V30 37 C -13.1403 1.2407 0.0 0
M  V30 38 C -14.4374 1.9879 0.0 0
M  V30 END ATOM
M  V30 BEGIN BOND
M  V30 1 2 1 2
M  V30 2 1 2 3
M  V30 3 1 2 4
M  V30 4 1 3 5 CFG=3
M  V30 5 1 3 6
M  V30 6 1 3 7
M  V30 7 1 4 8
M  V30 8 1 4 9 CFG=3
M  V30 9 1 6 10 CFG=1
M  V30 10 1 6 11
M  V30 11 1 8 12
M  V30 12 1 11 13
M  V30 13 2 12 14
M  V30 14 1 13 15 CFG=1
M  V30 15 1 13 16
M  V30 16 1 17 14 CFG=3
M  V30 17 1 15 18
M  V30 18 1 16 19 CFG=3
M  V30 19 1 16 20
M  V30 20 1 17 21
M  V30 21 2 18 22
M  V30 22 1 18 23
M  V30 23 2 19 24
M  V30 24 1 19 25
M  V30 25 1 20 26 CFG=3
M  V30 26 1 20 27
M  V30 27 2 21 28
M  V30 28 1 21 29
M  V30 29 1 26 30 CFG=3
M  V30 30 1 27 31 CFG=1
M  V30 31 1 29 32 CFG=1
M  V30 32 1 31 33
M  V30 33 2 33 34
M  V30 34 1 33 35
M  V30 35 1 34 36
M  V30 36 2 35 37
M  V30 37 2 36 38
M  V30 38 1 11 10 CFG=1
M  V30 39 1 16 17
M  V30 40 1 25 27
M  V30 41 1 26 29
M  V30 42 1 37 38
M  V30 END BOND
M  V30 BEGIN COLLECTION
M  V30 MDLV30/STEABS ATOMS=(11 3 4 6 11 13 16 17 20 26 27 29)
M  V30 END COLLECTION
M  V30 END CTAB
M  END
>  <Compound>
7-keto-19,20 epoxycytochalasin C

>  <Origin>
Xylaria karyophthora

>  <Reference>
Lambert C, Shao L, Zeng H, Surup F, Saetang P, Aime MC, Husbands DR, Rottner K, Stradal TEB, Stadler M. Cytochalasans produced by Xylaria karyophthora and their biological activities. Mycologia. 2023 May-Jun;115(3):277-287. doi: 10.1080/00275514.2023.2188868. Epub 2023 Apr 5. PMID: 37017575.

>  <Actin Disruption Activity (1h Treatment)>
++

>  <Reversibilty>
+

>  <Box ID>
1C0030

>  <Quantity>
available

>  <Cytotoxicity in L929 mouse fibroblasts [µM]>
7.1 

>  <Synonyms>
P13-4 NMR538
compound 3

>  <Subclass>
Cytochalasin

>  <Molecular Formula>
C30H37NO7

>  <Total Molweight>
523.624

>  <Smiles>
C[C@@H]([C@@H]([C@H](Cc1ccccc1)N1)[C@@]([C@H]2/C=C/C[C@H](C)C([C@@](C)([C@@H]3O[C@H]33)O)=O)([C@@H]3OC(C)=O)C1=O)[C@@H](C)C2=O

>  <Amino Acid>
Phenylalanine

>  <Cytotoxicity in L929 mouse Fibroblasts [µg/mL]>
3.7

>  <Cytotoxicity in KB3.1>


>  <Anti-Biofilm>
+

$$$$
Compound 35
Actelion Java MolfileCreator 2.0

  0  0  0  0  0  0              0 V3000
M  V30 BEGIN CTAB
M  V30 COUNTS 52 56 0 0 0
M  V30 BEGIN ATOM
M  V30 1 O 0.0 0.0 0.0 0
M  V30 2 C -0.0151 1.5279 0.0 0
M  V30 3 O -1.3312 2.3145 0.0 0
M  V30 4 C 1.2556 2.2843 0.0 0
M  V30 5 C -1.3463 3.8425 0.0 0 CFG=2
M  V30 6 C 2.5112 1.5581 0.0 0
M  V30 7 C -2.3599 1.9363 0.0 0
M  V30 8 C -0.0756 4.5989 0.0 0 CFG=1
M  V30 9 C -2.6625 4.614 0.0 0 CFG=1
M  V30 10 C 3.7819 2.3145 0.0 0 CFG=1
M  V30 11 O -2.3902 0.7715 0.0 0
M  V30 12 N -3.6912 2.375 0.0 0
M  V30 13 C 1.1799 3.8878 0.0 0
M  V30 14 C -0.0907 6.1268 0.0 0 CFG=2
M  V30 15 C -2.6776 6.1419 0.0 0 CFG=1
M  V30 16 C -3.8122 3.6458 0.0 0 CFG=1
M  V30 17 O 3.7214 0.953 0.0 0
M  V30 18 C 5.0527 1.5884 0.0 0
M  V30 19 C 2.4507 4.6442 0.0 0
M  V30 20 O 1.1799 6.8832 0.0 0
M  V30 21 C -1.422 6.9134 0.0 0
M  V30 22 C -4.0089 6.9286 0.0 0
M  V30 23 C -5.3099 3.9937 0.0 0
M  V30 24 C 6.3234 2.3448 0.0 0
M  V30 25 C 3.7063 3.9332 0.0 0
M  V30 26 C 1.1648 8.4111 0.0 0
M  V30 27 C -1.4371 8.4414 0.0 0
M  V30 28 C -6.3537 2.9196 0.0 0
M  V30 29 C 6.3083 3.8727 0.0 0
M  V30 30 C 4.9771 4.6896 0.0 0 CFG=1
M  V30 31 O -0.1512 9.1978 0.0 0
M  V30 32 C 2.4356 9.1675 0.0 0
M  V30 33 C -7.8514 3.2676 0.0 0
M  V30 34 C -5.9301 1.5279 0.0 0
M  V30 35 C 4.9619 6.2175 0.0 0
M  V30 36 C 2.4204 10.6954 0.0 0
M  V30 37 C -8.8952 2.1935 0.0 0
M  V30 38 C -6.9739 0.4538 0.0 0
M  V30 39 C 3.6912 11.4518 0.0 0
M  V30 40 C 1.1043 11.4821 0.0 0
M  V30 41 C 2.4053 12.2233 0.0 0
M  V30 42 C -8.4716 0.8017 0.0 0
M  V30 43 C 4.9468 10.7257 0.0 0
M  V30 44 C 3.6609 12.9797 0.0 0
M  V30 45 O 4.9165 9.2431 0.0 0
M  V30 46 C 6.2175 11.5123 0.0 0
M  V30 47 C 4.9165 13.7664 0.0 0
M  V30 48 C 2.3297 13.7361 0.0 0
M  V30 49 C 6.1873 13.0403 0.0 0
M  V30 50 C 7.5034 10.8013 0.0 0
M  V30 51 O 4.8863 15.3095 0.0 0
M  V30 52 C 7.4732 13.8118 0.0 0
M  V30 END ATOM
M  V30 BEGIN BOND
M  V30 1 2 1 2
M  V30 2 1 2 3
M  V30 3 1 2 4
M  V30 4 1 5 3 CFG=1
M  V30 5 2 4 6
M  V30 6 1 5 7
M  V30 7 1 5 8
M  V30 8 1 5 9
M  V30 9 1 6 10
M  V30 10 2 7 11
M  V30 11 1 7 12
M  V30 12 1 8 13 CFG=3
M  V30 13 1 8 14
M  V30 14 1 9 15 CFG=3
M  V30 15 1 9 16
M  V30 16 1 10 17 CFG=1
M  V30 17 1 10 18
M  V30 18 2 13 19
M  V30 19 1 14 20 CFG=1
M  V30 20 1 14 21
M  V30 21 1 15 22 CFG=3
M  V30 22 1 16 23 CFG=1
M  V30 23 1 18 24
M  V30 24 1 19 25
M  V30 25 1 20 26
M  V30 26 2 21 27
M  V30 27 1 23 28
M  V30 28 1 24 29
M  V30 29 1 25 30
M  V30 30 2 26 31
M  V30 31 1 26 32
M  V30 32 2 28 33
M  V30 33 1 28 34
M  V30 34 1 30 35 CFG=3
M  V30 35 1 32 36
M  V30 36 1 33 37
M  V30 37 2 34 38
M  V30 38 1 36 39
M  V30 39 1 36 40
M  V30 40 1 36 41
M  V30 41 2 37 42
M  V30 42 1 39 43
M  V30 43 2 39 44
M  V30 44 2 43 45
M  V30 45 1 43 46
M  V30 46 1 44 47
M  V30 47 1 44 48
M  V30 48 2 46 49
M  V30 49 1 46 50
M  V30 50 2 47 51
M  V30 51 1 49 52
M  V30 52 1 12 16
M  V30 53 1 15 21
M  V30 54 1 29 30
M  V30 55 1 38 42
M  V30 56 1 47 49
M  V30 END BOND
M  V30 BEGIN COLLECTION
M  V30 MDLV30/STEABS ATOMS=(8 5 8 9 10 14 15 16 30)
M  V30 END COLLECTION
M  V30 END CTAB
M  END
>  <Compound>
BQTML-Cytochalasin B

>  <Origin>
Preussia similis
semi-synthetic

>  <Reference>
Kagho MD, Schmidt K, Lambert C, Jia L, Venkatakrishnan V, Mehr L, Bylund J, Rottner K, Stadler M, Stradal TEB, Klahn P. NQO1-Responsive Prodrug for in Cellulo Release of Cytochalasin B as Cancer Cell-Targeted Migrastatic. Small. 2025 Mar 17:e2410861. doi: 10.1002/smll.202410861.

>  <Actin Disruption Activity (1h Treatment)>
Different activities in U-2OS, B16-F1, NIH 3T3, and Rat2 cell lines, depending on NQO1-expression levels

>  <Reversibilty>
not tested

>  <Box ID>
3C0109

>  <Quantity>
0.5 mg
1 mg

>  <Cytotoxicity in L929 mouse fibroblasts [µM]>
not tested

>  <Synonyms>
BQTML-CB

>  <Subclass>
Cytochalasin

>  <Molecular Formula>
C43H53NO8

>  <Total Molweight>
711.893

>  <Smiles>
C[C@@H]([C@@H]([C@H](Cc1ccccc1)NC1=O)[C@@]1([C@H]([C@@H]1OC(CC(C)(C)C(C(C(C)=C2C)=O)=C(C)C2=O)=O)/C=C/C[C@H](C)CCC[C@@H](/C=C2)O)OC\2=O)C1=C

>  <Amino Acid>
Phenylalanine

>  <Cytotoxicity in L929 mouse Fibroblasts [µg/mL]>
not tested

>  <Cytotoxicity in KB3.1>


>  <Anti-Biofilm>
not tested

$$$$
Compound 36
Actelion Java MolfileCreator 2.0

  0  0  0  0  0  0              0 V3000
M  V30 BEGIN CTAB
M  V30 COUNTS 39 43 0 0 0
M  V30 BEGIN ATOM
M  V30 1 O 0.0 0.0 0.0 0
M  V30 2 C 0.0484 1.5507 0.0 0
M  V30 3 C 1.3205 0.7996 0.0 0
M  V30 4 C 0.0 3.1015 0.0 0 CFG=2
M  V30 5 C 0.9813 -0.4846 0.0 0
M  V30 6 C -0.4361 1.6961 0.0 0
M  V30 7 C 1.2721 3.8647 0.0 0 CFG=1
M  V30 8 C -1.3084 3.9374 0.0 0 CFG=1
M  V30 9 C 2.0959 -1.3569 0.0 0
M  V30 10 O -1.0419 0.3513 0.0 0
M  V30 11 N -1.9747 1.6476 0.0 0
M  V30 12 C 2.5442 3.1136 0.0 0
M  V30 13 C 1.2963 5.4155 0.0 0 CFG=2
M  V30 14 C -1.2963 5.4882 0.0 0
M  V30 15 C -2.5078 3.0409 0.0 0 CFG=1
M  V30 16 O 1.8172 -2.7865 0.0 0
M  V30 17 C 3.4407 -0.7511 0.0 0 CFG=2
M  V30 18 C 3.6588 4.0828 0.0 0
M  V30 19 O 2.5684 6.1788 0.0 0
M  V30 20 C -0.0121 6.2515 0.0 0
M  V30 21 C -2.6047 6.3242 0.0 0
M  V30 22 C -4.0101 3.477 0.0 0
M  V30 23 O 4.5553 -1.6234 0.0 0
M  V30 24 C 3.6224 0.7753 0.0 0
M  V30 25 C 5.0642 3.792 0.0 0
M  V30 26 C 0.0 7.8022 0.0 0
M  V30 27 C -5.1005 2.4715 0.0 0
M  V30 28 C 5.0278 1.163 0.0 0
M  V30 29 C 2.4836 1.8294 0.0 0
M  V30 30 C 5.682 2.4957 0.0 0 CFG=1
M  V30 31 C -6.627 2.7501 0.0 0
M  V30 32 C -4.8945 1.0419 0.0 0
M  V30 33 C 7.1359 2.5442 0.0 0
M  V30 34 C -7.3661 1.4659 0.0 0
M  V30 35 C -7.4872 4.0465 0.0 0
M  V30 36 N -6.2636 0.3755 0.0 0
M  V30 37 C -8.9047 1.4174 0.0 0
M  V30 38 C -9.0259 3.998 0.0 0
M  V30 39 C -9.7649 2.7138 0.0 0
M  V30 END ATOM
M  V30 BEGIN BOND
M  V30 1 2 1 2
M  V30 2 1 2 3
M  V30 3 1 4 2 CFG=1
M  V30 4 2 3 5
M  V30 5 1 4 6
M  V30 6 1 4 7
M  V30 7 1 4 8
M  V30 8 1 5 9
M  V30 9 2 6 10
M  V30 10 1 6 11
M  V30 11 1 7 12 CFG=3
M  V30 12 1 7 13
M  V30 13 1 8 14 CFG=3
M  V30 14 1 8 15
M  V30 15 2 9 16
M  V30 16 1 9 17
M  V30 17 2 12 18
M  V30 18 1 13 19 CFG=1
M  V30 19 1 13 20
M  V30 20 1 14 21
M  V30 21 1 15 22 CFG=1
M  V30 22 1 17 23 CFG=1
M  V30 23 1 17 24
M  V30 24 1 18 25
M  V30 25 1 20 26
M  V30 26 1 22 27
M  V30 27 2 24 28
M  V30 28 1 24 29
M  V30 29 1 25 30
M  V30 30 1 27 31
M  V30 31 2 27 32
M  V30 32 1 30 33 CFG=3
M  V30 33 2 31 34
M  V30 34 1 31 35
M  V30 35 1 32 36
M  V30 36 1 34 37
M  V30 37 2 35 38
M  V30 38 2 37 39
M  V30 39 1 11 15
M  V30 40 2 14 20
M  V30 41 1 28 30
M  V30 42 1 34 36
M  V30 43 1 38 39
M  V30 END BOND
M  V30 BEGIN COLLECTION
M  V30 MDLV30/STEABS ATOMS=(7 4 7 8 13 15 17 30)
M  V30 END COLLECTION
M  V30 END CTAB
M  END
>  <Compound>
Chaetoglobosin B

>  <Origin>
Ijuhya vitellina

>  <Reference>
Moussa, A.Y.; Lambert, C.; Stradal, T.E.B.; Ashrafi, S.; Maier, W.; Stadler, M.; Helaly, S.E. New Peptaibiotics and a Cyclodepsipeptide from Ijuhya vitellina: Isolation, Identification, Cytotoxic and Nematicidal Activities. Antibiotics 2020, 9, 132. https://doi.org/10.3390/antibiotics9030132

>  <Actin Disruption Activity (1h Treatment)>
+++

>  <Reversibilty>
-

>  <Box ID>
2C0102

>  <Quantity>
available

>  <Cytotoxicity in L929 mouse fibroblasts [µM]>
4.4

>  <Synonyms>
compound 5

>  <Subclass>
Chaetoglobosin

>  <Molecular Formula>
C32H36N2O5

>  <Total Molweight>
528.647

>  <Smiles>
C[C@@H](C/C=C/[C@@H]([C@@H](C(C)=C(C)[C@H]1[C@H](Cc2c[nH]c3c2cccc3)NC2=O)O)[C@@]12C(/C=C/C1=O)=O)/C=C(\C)/[C@H]1O

>  <Amino Acid>
Tryptophane

>  <Cytotoxicity in L929 mouse Fibroblasts [µg/mL]>
2.3 

>  <Cytotoxicity in KB3.1>


>  <Anti-Biofilm>
not tested

$$$$
Compound 37
Actelion Java MolfileCreator 2.0

  0  0  0  0  0  0              0 V3000
M  V30 BEGIN CTAB
M  V30 COUNTS 39 43 0 0 0
M  V30 BEGIN ATOM
M  V30 1 O 0.0 0.0 0.0 0
M  V30 2 C 0.0484 1.5507 0.0 0
M  V30 3 C 1.3205 0.7996 0.0 0
M  V30 4 C 0.0 3.1015 0.0 0 CFG=2
M  V30 5 C 0.9813 -0.4846 0.0 0
M  V30 6 C -0.4361 1.6961 0.0 0
M  V30 7 C 1.2721 3.8647 0.0 0 CFG=1
M  V30 8 C -1.3084 3.9374 0.0 0 CFG=1
M  V30 9 C 2.0959 -1.3569 0.0 0
M  V30 10 O -1.0419 0.3513 0.0 0
M  V30 11 N -1.9747 1.6476 0.0 0
M  V30 12 C 2.5442 3.1136 0.0 0
M  V30 13 C 1.2963 5.4155 0.0 0 CFG=2
M  V30 14 C -1.2963 5.4882 0.0 0 CFG=1
M  V30 15 C -2.5078 3.0409 0.0 0 CFG=1
M  V30 16 O 1.8172 -2.7865 0.0 0
M  V30 17 C 3.4407 -0.7511 0.0 0 CFG=2
M  V30 18 C 3.6588 4.0828 0.0 0
M  V30 19 O 2.5684 6.1788 0.0 0
M  V30 20 C -0.0121 6.2515 0.0 0
M  V30 21 C -2.6047 6.3242 0.0 0
M  V30 22 C -4.0101 3.477 0.0 0
M  V30 23 O 4.5553 -1.6234 0.0 0
M  V30 24 C 3.6224 0.7753 0.0 0
M  V30 25 C 5.0642 3.792 0.0 0
M  V30 26 C 0.0 7.8022 0.0 0
M  V30 27 C -5.1005 2.4715 0.0 0
M  V30 28 C 5.0278 1.163 0.0 0
M  V30 29 C 2.4836 1.8294 0.0 0
M  V30 30 C 5.682 2.4957 0.0 0 CFG=1
M  V30 31 C -6.627 2.7501 0.0 0
M  V30 32 C -4.8945 1.0419 0.0 0
M  V30 33 C 7.1359 2.5442 0.0 0
M  V30 34 C -7.3661 1.4659 0.0 0
M  V30 35 C -7.4872 4.0465 0.0 0
M  V30 36 N -6.2636 0.3755 0.0 0
M  V30 37 C -8.9047 1.4174 0.0 0
M  V30 38 C -9.0259 3.998 0.0 0
M  V30 39 C -9.7649 2.7138 0.0 0
M  V30 END ATOM
M  V30 BEGIN BOND
M  V30 1 2 1 2
M  V30 2 1 2 3
M  V30 3 1 4 2 CFG=1
M  V30 4 2 3 5
M  V30 5 1 4 6
M  V30 6 1 4 7
M  V30 7 1 4 8
M  V30 8 1 5 9
M  V30 9 2 6 10
M  V30 10 1 6 11
M  V30 11 1 7 12 CFG=3
M  V30 12 1 7 13
M  V30 13 1 8 14 CFG=3
M  V30 14 1 8 15
M  V30 15 2 9 16
M  V30 16 1 9 17
M  V30 17 2 12 18
M  V30 18 1 13 19 CFG=1
M  V30 19 1 13 20
M  V30 20 1 14 21 CFG=3
M  V30 21 1 15 22 CFG=1
M  V30 22 1 17 23 CFG=1
M  V30 23 1 17 24
M  V30 24 1 18 25
M  V30 25 2 20 26
M  V30 26 1 22 27
M  V30 27 2 24 28
M  V30 28 1 24 29
M  V30 29 1 25 30
M  V30 30 1 27 31
M  V30 31 2 27 32
M  V30 32 1 30 33 CFG=3
M  V30 33 2 31 34
M  V30 34 1 31 35
M  V30 35 1 32 36
M  V30 36 1 34 37
M  V30 37 2 35 38
M  V30 38 2 37 39
M  V30 39 1 11 15
M  V30 40 1 14 20
M  V30 41 1 28 30
M  V30 42 1 34 36
M  V30 43 1 38 39
M  V30 END BOND
M  V30 BEGIN COLLECTION
M  V30 MDLV30/STEABS ATOMS=(8 4 7 8 13 14 15 17 30)
M  V30 END COLLECTION
M  V30 END CTAB
M  END
>  <Compound>
Chaetoglobosin D

>  <Origin>
Ijuhya vitellina

>  <Reference>
Kretz, R.; Wendt, L.; Wongkanoun, S.; Luangsa-ard, J.J.; Surup, F.; Helaly, S.E.; Noumeur, S.R.; Stadler, M.; Stradal, T.E.B. The Effect of Cytochalasans on the Actin Cytoskeleton of Eukaryotic Cells and Preliminary Structure–Activity Relationships. Biomolecules 2019, 9, 73. https://doi.org/10.3390/biom9020073

>  <Actin Disruption Activity (1h Treatment)>
++

>  <Reversibilty>
-

>  <Box ID>
not available

>  <Quantity>
not available

>  <Cytotoxicity in L929 mouse fibroblasts [µM]>
not tested

>  <Synonyms>
compound 25

>  <Subclass>
Chaetoglobosin

>  <Molecular Formula>
C32H36N2O5

>  <Total Molweight>
528.647

>  <Smiles>
C[C@@H]([C@@H]([C@H](Cc1c[nH]c2c1cccc2)NC1=O)[C@@]1([C@H]([C@@H]1O)/C=C/C[C@H](C)/C=C(\C)/[C@H](C(/C=C2)=O)O)C\2=O)C1=C

>  <Amino Acid>
Tryptophane

>  <Cytotoxicity in L929 mouse Fibroblasts [µg/mL]>
not tested

>  <Cytotoxicity in KB3.1>


>  <Anti-Biofilm>
not tested

$$$$
Compound 38
Actelion Java MolfileCreator 2.0

  0  0  0  0  0  0              0 V3000
M  V30 BEGIN CTAB
M  V30 COUNTS 32 35 0 0 0
M  V30 BEGIN ATOM
M  V30 1 O 0.0 0.0 0.0 0
M  V30 2 C -0.1501 1.7474 0.0 0
M  V30 3 C 1.1194 1.0238 0.0 0
M  V30 4 C -0.1774 3.2627 0.0 0 CFG=2
M  V30 5 C 2.389 1.802 0.0 0
M  V30 6 C -0.5187 1.8293 0.0 0
M  V30 7 C 1.0921 4.0409 0.0 0 CFG=1
M  V30 8 C -1.5016 4.0409 0.0 0 CFG=1
M  V30 9 C 3.5221 0.901 0.0 0 CFG=1
M  V30 10 O -0.901 0.3412 0.0 0
M  V30 11 N -2.0341 1.7064 0.0 0
M  V30 12 C 2.3617 3.3173 0.0 0
M  V30 13 C 1.0648 5.5562 0.0 0
M  V30 14 C -1.529 5.5562 0.0 0 CFG=1
M  V30 15 C -2.6347 3.0716 0.0 0 CFG=1
M  V30 16 O 4.3685 -0.232 0.0 0
M  V30 17 C 4.9556 1.2696 0.0 0
M  V30 18 C 3.1535 -0.5324 0.0 0
M  V30 19 C 3.4948 4.273 0.0 0
M  V30 20 C -0.2593 6.3344 0.0 0
M  V30 21 C -2.8532 6.3344 0.0 0
M  V30 22 C -4.1228 3.4129 0.0 0
M  V30 23 C 5.5835 2.6347 0.0 0 CFG=2
M  V30 24 C 4.9282 3.959 0.0 0
M  V30 25 C -0.2866 7.8497 0.0 0
M  V30 26 C -5.1467 2.3344 0.0 0
M  V30 27 C 7.0443 2.6621 0.0 0
M  V30 28 C -6.6347 2.6757 0.0 0
M  V30 29 C -4.7098 0.9419 0.0 0
M  V30 30 C -7.6586 1.5972 0.0 0
M  V30 31 C -5.7337 -0.1365 0.0 0
M  V30 32 C -7.2218 0.2047 0.0 0
M  V30 END ATOM
M  V30 BEGIN BOND
M  V30 1 2 1 2
M  V30 2 1 2 3
M  V30 3 1 4 2 CFG=1
M  V30 4 2 3 5
M  V30 5 1 4 6
M  V30 6 1 4 7
M  V30 7 1 4 8
M  V30 8 1 5 9
M  V30 9 2 6 10
M  V30 10 1 6 11
M  V30 11 1 7 12 CFG=3
M  V30 12 1 7 13
M  V30 13 1 8 14 CFG=3
M  V30 14 1 8 15
M  V30 15 1 9 16 CFG=3
M  V30 16 1 9 17
M  V30 17 1 9 18
M  V30 18 2 12 19
M  V30 19 2 13 20
M  V30 20 1 14 21 CFG=3
M  V30 21 1 15 22 CFG=1
M  V30 22 1 17 23
M  V30 23 1 19 24
M  V30 24 1 20 25
M  V30 25 1 22 26
M  V30 26 1 23 27 CFG=3
M  V30 27 2 26 28
M  V30 28 1 26 29
M  V30 29 1 28 30
M  V30 30 2 29 31
M  V30 31 2 30 32
M  V30 32 1 11 15
M  V30 33 1 14 20
M  V30 34 1 23 24
M  V30 35 1 31 32
M  V30 END BOND
M  V30 BEGIN COLLECTION
M  V30 MDLV30/STEABS ATOMS=(7 4 7 8 9 14 15 23)
M  V30 END COLLECTION
M  V30 END CTAB
M  END
>  <Compound>
Cytochalasin 10

>  <Origin>
Daldinia eschscholtzii

>  <Reference>
Kretz, R., Wendt, L., Wongkanoun, S., Luangsa-ard, J., Surup, F., Helaly, S., … Stradal, T. (2019). The Effect of Cytochalasans on the Actin Cytoskeleton of Eukaryotic Cells and Preliminary Structure–Activity Relationships. Biomolecules, 9(2), 73. doi:10.

>  <Actin Disruption Activity (1h Treatment)>
+

>  <Reversibilty>
+/-

>  <Box ID>
not available

>  <Quantity>
not available

>  <Cytotoxicity in L929 mouse fibroblasts [µM]>
not tested

>  <Synonyms>
compound 14

>  <Subclass>
Cytochalasin

>  <Molecular Formula>
C28H35NO3

>  <Total Molweight>
433.59

>  <Smiles>
C[C@@H]([C@@H]([C@H](Cc1ccccc1)NC1=O)[C@@]11C(/C=C2)=O)C(C)=C[C@@H]1/C=C/C[C@H](C)C[C@]\2(C)O

>  <Amino Acid>
Phenylalanine

>  <Cytotoxicity in L929 mouse Fibroblasts [µg/mL]>
not tested

>  <Cytotoxicity in KB3.1>


>  <Anti-Biofilm>
+

$$$$
Compound 39
Actelion Java MolfileCreator 2.0

  0  0  0  0  0  0              0 V3000
M  V30 BEGIN CTAB
M  V30 COUNTS 33 36 0 0 0
M  V30 BEGIN ATOM
M  V30 1 O 0.0 0.0 0.0 0
M  V30 2 C -0.1656 1.7672 0.0 0
M  V30 3 C 1.0907 1.0492 0.0 0
M  V30 4 C -0.207 3.2997 0.0 0 CFG=2
M  V30 5 C 2.3471 1.85 0.0 0
M  V30 6 C -0.566 1.8776 0.0 0
M  V30 7 C 1.0492 4.1005 0.0 0 CFG=1
M  V30 8 C -1.5463 4.1005 0.0 0 CFG=1
M  V30 9 C 3.4654 0.9664 0.0 0 CFG=1
M  V30 10 O -0.9664 0.4003 0.0 0
M  V30 11 N -2.0985 1.7672 0.0 0
M  V30 12 C 2.3056 3.3825 0.0 0
M  V30 13 C 1.0078 5.633 0.0 0
M  V30 14 C -1.5877 5.633 0.0 0 CFG=1
M  V30 15 C -2.6922 3.1478 0.0 0 CFG=1
M  V30 16 O 4.3076 -0.1518 0.0 0
M  V30 17 C 4.8875 1.353 0.0 0
M  V30 18 C 3.0788 -0.4556 0.0 0
M  V30 19 C 3.424 4.349 0.0 0
M  V30 20 C -0.3313 6.4338 0.0 0
M  V30 21 C -2.9269 6.4338 0.0 0
M  V30 22 C -4.1971 3.5068 0.0 0
M  V30 23 C 5.5088 2.7336 0.0 0 CFG=2
M  V30 24 C 4.846 4.0453 0.0 0
M  V30 25 C -0.3727 7.9663 0.0 0
M  V30 26 C -5.2326 2.4437 0.0 0
M  V30 27 C 6.9584 2.7751 0.0 0
M  V30 28 O 0.6627 8.9052 0.0 0
M  V30 29 C -6.7375 2.8027 0.0 0
M  V30 30 C -4.8046 1.0631 0.0 0
M  V30 31 C -7.773 1.7396 0.0 0
M  V30 32 C -5.8401 0.0 0.0 0
M  V30 33 C -7.345 0.3589 0.0 0
M  V30 END ATOM
M  V30 BEGIN BOND
M  V30 1 2 1 2
M  V30 2 1 2 3
M  V30 3 1 4 2 CFG=1
M  V30 4 2 3 5
M  V30 5 1 4 6
M  V30 6 1 4 7
M  V30 7 1 4 8
M  V30 8 1 5 9
M  V30 9 2 6 10
M  V30 10 1 6 11
M  V30 11 1 7 12 CFG=3
M  V30 12 1 7 13
M  V30 13 1 8 14 CFG=3
M  V30 14 1 8 15
M  V30 15 1 9 16 CFG=3
M  V30 16 1 9 17
M  V30 17 1 9 18
M  V30 18 2 12 19
M  V30 19 2 13 20
M  V30 20 1 14 21 CFG=3
M  V30 21 1 15 22 CFG=1
M  V30 22 1 17 23
M  V30 23 1 19 24
M  V30 24 1 20 25
M  V30 25 1 22 26
M  V30 26 1 23 27 CFG=3
M  V30 27 1 25 28
M  V30 28 2 26 29
M  V30 29 1 26 30
M  V30 30 1 29 31
M  V30 31 2 30 32
M  V30 32 2 31 33
M  V30 33 1 11 15
M  V30 34 1 14 20
M  V30 35 1 23 24
M  V30 36 1 32 33
M  V30 END BOND
M  V30 BEGIN COLLECTION
M  V30 MDLV30/STEABS ATOMS=(7 4 7 8 9 14 15 23)
M  V30 END COLLECTION
M  V30 END CTAB
M  END
>  <Compound>
Cytochalasin 11

>  <Origin>
Daldinia eschscholtzii

>  <Reference>
Kretz, R., Wendt, L., Wongkanoun, S., Luangsa-ard, J., Surup, F., Helaly, S., … Stradal, T. (2019). The Effect of Cytochalasans on the Actin Cytoskeleton of Eukaryotic Cells and Preliminary Structure–Activity Relationships. Biomolecules, 9(2), 73. doi:10.

>  <Actin Disruption Activity (1h Treatment)>
+

>  <Reversibilty>
+/-

>  <Box ID>
not available

>  <Quantity>
not available

>  <Cytotoxicity in L929 mouse fibroblasts [µM]>
not tested

>  <Synonyms>
compound 15

>  <Subclass>
Cytochalasin

>  <Molecular Formula>
C28H35NO4

>  <Total Molweight>
449.589

>  <Smiles>
C[C@@H]([C@@H]([C@H](Cc1ccccc1)NC1=O)[C@@]11C(/C=C2)=O)C(CO)=C[C@@H]1/C=C/C[C@H](C)C[C@]\2(C)O

>  <Amino Acid>
Phenylalanine

>  <Cytotoxicity in L929 mouse Fibroblasts [µg/mL]>
not tested

>  <Cytotoxicity in KB3.1>


>  <Anti-Biofilm>
+

$$$$
Compound 40
Actelion Java MolfileCreator 2.0

  0  0  0  0  0  0              0 V3000
M  V30 BEGIN CTAB
M  V30 COUNTS 32 35 0 0 0
M  V30 BEGIN ATOM
M  V30 1 O 0.0 0.0 0.0 0
M  V30 2 C -0.15 1.7463 0.0 0
M  V30 3 C 1.1187 1.0232 0.0 0
M  V30 4 C -0.1773 3.2607 0.0 0 CFG=2
M  V30 5 C 2.3875 1.8008 0.0 0
M  V30 6 C -0.5184 1.8281 0.0 0
M  V30 7 C 1.0914 4.0383 0.0 0 CFG=1
M  V30 8 C -1.5007 4.0383 0.0 0 CFG=1
M  V30 9 C 3.5199 0.9004 0.0 0 CFG=1
M  V30 10 O -0.9004 0.341 0.0 0
M  V30 11 N -2.0328 1.7053 0.0 0
M  V30 12 C 2.3602 3.3152 0.0 0
M  V30 13 C 1.0641 5.5527 0.0 0
M  V30 14 C -1.528 5.5527 0.0 0 CFG=1
M  V30 15 C -2.6331 3.0697 0.0 0 CFG=1
M  V30 16 C 4.9524 1.2688 0.0 0 CFG=2
M  V30 17 C 3.1515 -0.532 0.0 0
M  V30 18 C 3.4926 4.2703 0.0 0
M  V30 19 C -0.2592 6.3304 0.0 0
M  V30 20 C -2.8514 6.3304 0.0 0
M  V30 21 C -4.1202 3.4107 0.0 0
M  V30 22 O 5.8529 0.1364 0.0 0
M  V30 23 C 5.58 2.6331 0.0 0 CFG=2
M  V30 24 C 4.9251 3.9565 0.0 0
M  V30 25 C -0.2865 7.8448 0.0 0
M  V30 26 C -5.1434 2.3329 0.0 0
M  V30 27 C 7.0398 2.6604 0.0 0
M  V30 28 C -6.6305 2.674 0.0 0
M  V30 29 C -4.7068 0.9413 0.0 0
M  V30 30 C -7.6537 1.5962 0.0 0
M  V30 31 C -5.7301 -0.1364 0.0 0
M  V30 32 C -7.2172 0.2046 0.0 0
M  V30 END ATOM
M  V30 BEGIN BOND
M  V30 1 2 1 2
M  V30 2 1 2 3
M  V30 3 1 4 2 CFG=1
M  V30 4 2 3 5
M  V30 5 1 4 6
M  V30 6 1 4 7
M  V30 7 1 4 8
M  V30 8 1 5 9
M  V30 9 2 6 10
M  V30 10 1 6 11
M  V30 11 1 7 12 CFG=3
M  V30 12 1 7 13
M  V30 13 1 8 14 CFG=3
M  V30 14 1 8 15
M  V30 15 1 9 16
M  V30 16 1 9 17 CFG=1
M  V30 17 2 12 18
M  V30 18 2 13 19
M  V30 19 1 14 20 CFG=3
M  V30 20 1 15 21 CFG=1
M  V30 21 1 16 22 CFG=1
M  V30 22 1 16 23
M  V30 23 1 18 24
M  V30 24 1 19 25
M  V30 25 1 21 26
M  V30 26 1 23 27 CFG=3
M  V30 27 2 26 28
M  V30 28 1 26 29
M  V30 29 1 28 30
M  V30 30 2 29 31
M  V30 31 2 30 32
M  V30 32 1 11 15
M  V30 33 1 14 19
M  V30 34 1 23 24
M  V30 35 1 31 32
M  V30 END BOND
M  V30 BEGIN COLLECTION
M  V30 MDLV30/STEABS ATOMS=(8 4 7 8 9 14 15 16 23)
M  V30 END COLLECTION
M  V30 END CTAB
M  END
>  <Compound>
Cytochalasin 12

>  <Origin>
Daldinia eschscholtzii

>  <Reference>
Kretz, R., Wendt, L., Wongkanoun, S., Luangsa-ard, J., Surup, F., Helaly, S., … Stradal, T. (2019). The Effect of Cytochalasans on the Actin Cytoskeleton of Eukaryotic Cells and Preliminary Structure–Activity Relationships. Biomolecules, 9(2), 73. doi:10.

>  <Actin Disruption Activity (1h Treatment)>
-

>  <Reversibilty>
not tested

>  <Box ID>
not available

>  <Quantity>
not available

>  <Cytotoxicity in L929 mouse fibroblasts [µM]>
not tested

>  <Synonyms>
compound 16

>  <Subclass>
Cytochalasin

>  <Molecular Formula>
C28H35NO3

>  <Total Molweight>
433.59

>  <Smiles>
C[C@@H]([C@@H]([C@H](Cc1ccccc1)NC1=O)[C@@]11C(/C=C/[C@@H]2C)=O)C(C)=C[C@@H]1/C=C/C[C@H](C)[C@H]2O

>  <Amino Acid>
Phenylalanine

>  <Cytotoxicity in L929 mouse Fibroblasts [µg/mL]>
not tested

>  <Cytotoxicity in KB3.1>


>  <Anti-Biofilm>
+

$$$$
Compound 41
Actelion Java MolfileCreator 2.0

  0  0  0  0  0  0              0 V3000
M  V30 BEGIN CTAB
M  V30 COUNTS 33 36 0 0 0
M  V30 BEGIN ATOM
M  V30 1 O 0.0 0.0 0.0 0
M  V30 2 C -0.1507 1.7543 0.0 0
M  V30 3 C 1.1238 1.0279 0.0 0
M  V30 4 C -0.1781 3.2757 0.0 0 CFG=2
M  V30 5 C 2.3985 1.8091 0.0 0
M  V30 6 C -0.5208 1.8365 0.0 0
M  V30 7 C 1.0964 4.0569 0.0 0 CFG=1
M  V30 8 C -1.5076 4.0569 0.0 0 CFG=1
M  V30 9 C 3.5361 0.9045 0.0 0 CFG=1
M  V30 10 O -0.9045 0.3426 0.0 0
M  V30 11 N -2.0421 1.7132 0.0 0
M  V30 12 C 2.3711 3.3305 0.0 0
M  V30 13 C 1.069 5.5782 0.0 0 CFG=2
M  V30 14 C -1.535 5.5782 0.0 0 CFG=1
M  V30 15 C -2.6452 3.0838 0.0 0 CFG=1
M  V30 16 O 3.5361 -0.37 0.0 0
M  V30 17 C 4.9752 1.2746 0.0 0
M  V30 18 C 2.3985 0.0411 0.0 0
M  V30 19 C 3.5087 4.2899 0.0 0
M  V30 20 O 2.3437 6.3595 0.0 0
M  V30 21 C -0.2604 6.3595 0.0 0
M  V30 22 C -2.8645 6.3595 0.0 0
M  V30 23 C -4.1391 3.4264 0.0 0
M  V30 24 C 5.6057 2.6452 0.0 0 CFG=2
M  V30 25 C 4.9478 3.9747 0.0 0
M  V30 26 C -0.2878 7.8808 0.0 0
M  V30 27 C -5.1671 2.3437 0.0 0
M  V30 28 C 7.0722 2.6726 0.0 0
M  V30 29 C -6.661 2.6863 0.0 0
M  V30 30 C -4.7285 0.9457 0.0 0
M  V30 31 C -7.689 1.6035 0.0 0
M  V30 32 C -5.7564 -0.137 0.0 0
M  V30 33 C -7.2504 0.2055 0.0 0
M  V30 END ATOM
M  V30 BEGIN BOND
M  V30 1 2 1 2
M  V30 2 1 2 3
M  V30 3 1 4 2 CFG=1
M  V30 4 2 3 5
M  V30 5 1 4 6
M  V30 6 1 4 7
M  V30 7 1 4 8
M  V30 8 1 5 9
M  V30 9 2 6 10
M  V30 10 1 6 11
M  V30 11 1 7 12 CFG=3
M  V30 12 1 7 13
M  V30 13 1 8 14 CFG=3
M  V30 14 1 8 15
M  V30 15 1 9 16 CFG=3
M  V30 16 1 9 17
M  V30 17 1 9 18
M  V30 18 2 12 19
M  V30 19 1 13 20 CFG=1
M  V30 20 1 13 21
M  V30 21 1 14 22 CFG=3
M  V30 22 1 15 23 CFG=1
M  V30 23 1 17 24
M  V30 24 1 19 25
M  V30 25 2 21 26
M  V30 26 1 23 27
M  V30 27 1 24 28 CFG=3
M  V30 28 2 27 29
M  V30 29 1 27 30
M  V30 30 1 29 31
M  V30 31 2 30 32
M  V30 32 2 31 33
M  V30 33 1 11 15
M  V30 34 1 14 21
M  V30 35 1 24 25
M  V30 36 1 32 33
M  V30 END BOND
M  V30 BEGIN COLLECTION
M  V30 MDLV30/STEABS ATOMS=(8 4 7 8 9 13 14 15 24)
M  V30 END COLLECTION
M  V30 END CTAB
M  END
>  <Compound>
Cytochalasin 6

>  <Origin>
Daldinia eschscholtzii

>  <Reference>
Kretz, R., Wendt, L., Wongkanoun, S., Luangsa-ard, J., Surup, F., Helaly, S., … Stradal, T. (2019). The Effect of Cytochalasans on the Actin Cytoskeleton of Eukaryotic Cells and Preliminary Structure–Activity Relationships. Biomolecules, 9(2), 73. doi:10.

>  <Actin Disruption Activity (1h Treatment)>
+++

>  <Reversibilty>
-

>  <Box ID>
not available

>  <Quantity>
not available

>  <Cytotoxicity in L929 mouse fibroblasts [µM]>
not tested

>  <Synonyms>
compound 12

>  <Subclass>
Cytochalasin

>  <Molecular Formula>
C28H35NO4

>  <Total Molweight>
449.589

>  <Smiles>
C[C@@H]([C@@H]([C@H](Cc1ccccc1)NC1=O)[C@@]1([C@H]([C@@H]1O)/C=C/C[C@H](C)C[C@@](C)(/C=C2)O)C\2=O)C1=C

>  <Amino Acid>
Phenylalanine

>  <Cytotoxicity in L929 mouse Fibroblasts [µg/mL]>
not tested

>  <Cytotoxicity in KB3.1>


>  <Anti-Biofilm>
+

$$$$
Compound 42
Actelion Java MolfileCreator 2.0

  0  0  0  0  0  0              0 V3000
M  V30 BEGIN CTAB
M  V30 COUNTS 32 35 0 0 0
M  V30 BEGIN ATOM
M  V30 1 O 0.0 0.0 0.0 0
M  V30 2 C -0.1499 1.7449 0.0 0
M  V30 3 C 1.1178 1.0224 0.0 0
M  V30 4 C -0.1772 3.2581 0.0 0 CFG=2
M  V30 5 C 2.3856 1.7994 0.0 0
M  V30 6 C -0.518 1.8267 0.0 0
M  V30 7 C 1.0905 4.0351 0.0 0 CFG=1
M  V30 8 C -1.4995 4.0351 0.0 0 CFG=1
M  V30 9 C 3.5171 0.8997 0.0 0 CFG=1
M  V30 10 O -0.8997 0.3408 0.0 0
M  V30 11 N -2.0312 1.704 0.0 0
M  V30 12 C 2.3584 3.3126 0.0 0
M  V30 13 C 1.0633 5.5483 0.0 0 CFG=2
M  V30 14 C -1.5268 5.5483 0.0 0 CFG=1
M  V30 15 C -2.631 3.0672 0.0 0 CFG=1
M  V30 16 C 4.9485 1.2678 0.0 0
M  V30 17 C 3.149 -0.5316 0.0 0
M  V30 18 C 3.4898 4.2669 0.0 0
M  V30 19 O 2.3311 6.3254 0.0 0
M  V30 20 C -0.259 6.3254 0.0 0
M  V30 21 C -2.8491 6.3254 0.0 0
M  V30 22 C -4.1169 3.408 0.0 0
M  V30 23 C 5.5756 2.631 0.0 0 CFG=2
M  V30 24 C 4.9212 3.9533 0.0 0
M  V30 25 C -0.2862 7.8386 0.0 0
M  V30 26 C -5.1394 2.3311 0.0 0
M  V30 27 C 7.0343 2.6583 0.0 0
M  V30 28 C -6.6253 2.6719 0.0 0
M  V30 29 C -4.7031 0.9406 0.0 0
M  V30 30 C -7.6477 1.5949 0.0 0
M  V30 31 C -5.7256 -0.1363 0.0 0
M  V30 32 C -7.2115 0.2044 0.0 0
M  V30 END ATOM
M  V30 BEGIN BOND
M  V30 1 2 1 2
M  V30 2 1 2 3
M  V30 3 1 4 2 CFG=1
M  V30 4 2 3 5
M  V30 5 1 4 6
M  V30 6 1 4 7
M  V30 7 1 4 8
M  V30 8 1 5 9
M  V30 9 2 6 10
M  V30 10 1 6 11
M  V30 11 1 7 12 CFG=3
M  V30 12 1 7 13
M  V30 13 1 8 14 CFG=3
M  V30 14 1 8 15
M  V30 15 1 9 16
M  V30 16 1 9 17 CFG=1
M  V30 17 2 12 18
M  V30 18 1 13 19 CFG=1
M  V30 19 1 13 20
M  V30 20 1 14 21 CFG=3
M  V30 21 1 15 22 CFG=1
M  V30 22 1 16 23
M  V30 23 1 18 24
M  V30 24 2 20 25
M  V30 25 1 22 26
M  V30 26 1 23 27 CFG=3
M  V30 27 2 26 28
M  V30 28 1 26 29
M  V30 29 1 28 30
M  V30 30 2 29 31
M  V30 31 2 30 32
M  V30 32 1 11 15
M  V30 33 1 14 20
M  V30 34 1 23 24
M  V30 35 1 31 32
M  V30 END BOND
M  V30 BEGIN COLLECTION
M  V30 MDLV30/STEABS ATOMS=(8 4 7 8 9 13 14 15 23)
M  V30 END COLLECTION
M  V30 END CTAB
M  END
>  <Compound>
Cytochalasin 9

>  <Origin>
Daldinia eschscholtzii

>  <Reference>
Kretz, R., Wendt, L., Wongkanoun, S., Luangsa-ard, J., Surup, F., Helaly, S., … Stradal, T. (2019). The Effect of Cytochalasans on the Actin Cytoskeleton of Eukaryotic Cells and Preliminary Structure–Activity Relationships. Biomolecules, 9(2), 73. doi:10.

>  <Actin Disruption Activity (1h Treatment)>
++

>  <Reversibilty>
-

>  <Box ID>
not available

>  <Quantity>
not available

>  <Cytotoxicity in L929 mouse fibroblasts [µM]>
not tested

>  <Synonyms>
compound 13

>  <Subclass>
Cytochalasin

>  <Molecular Formula>
C28H35NO3

>  <Total Molweight>
433.59

>  <Smiles>
C[C@@H]([C@@H]([C@H](Cc1ccccc1)NC1=O)[C@@]1([C@H]([C@@H]1O)/C=C/C[C@H](C)C[C@@H](C)/C=C2)C\2=O)C1=C

>  <Amino Acid>
Phenylalanine

>  <Cytotoxicity in L929 mouse Fibroblasts [µg/mL]>
not tested

>  <Cytotoxicity in KB3.1>


>  <Anti-Biofilm>
-

$$$$
Compound 43
Actelion Java MolfileCreator 2.0

  0  0  0  0  0  0              0 V3000
M  V30 BEGIN CTAB
M  V30 COUNTS 35 38 0 0 0
M  V30 BEGIN ATOM
M  V30 1 O 0.0 0.0 0.0 0
M  V30 2 C -0.0724 1.5794 0.0 0
M  V30 3 O -1.4489 2.3908 0.0 0
M  V30 4 C 1.1447 2.3618 0.0 0
M  V30 5 C -1.5214 3.9702 0.0 0 CFG=2
M  V30 6 C 2.3473 1.7243 0.0 0
M  V30 7 C -2.6081 2.1445 0.0 0
M  V30 8 C -0.3042 4.7527 0.0 0 CFG=1
M  V30 9 C -2.8979 4.7672 0.0 0 CFG=1
M  V30 10 C 3.5645 2.5067 0.0 0 CFG=1
M  V30 11 O -2.6951 1.0287 0.0 0
M  V30 12 N -3.9992 2.6226 0.0 0
M  V30 13 C 0.8983 4.1296 0.0 0
M  V30 14 C -0.3767 6.3321 0.0 0 CFG=2
M  V30 15 C -2.9704 6.3466 0.0 0 CFG=1
M  V30 16 C -4.1151 3.8398 0.0 0 CFG=1
M  V30 17 O 3.4486 1.2026 0.0 0
M  V30 18 C 4.7816 1.8692 0.0 0
M  V30 19 C 2.1155 4.9121 0.0 0
M  V30 20 O 0.8404 7.1145 0.0 0
M  V30 21 C -1.7677 7.1435 0.0 0
M  V30 22 C -4.3614 7.158 0.0 0
M  V30 23 C -5.6655 4.231 0.0 0
M  V30 24 C 5.9988 2.6516 0.0 0
M  V30 25 C 3.3182 4.289 0.0 0
M  V30 26 C -1.8402 8.7229 0.0 0
M  V30 27 C -6.7813 3.2022 0.0 0
M  V30 28 C 5.9264 4.231 0.0 0
M  V30 29 C 4.5353 5.0714 0.0 0 CFG=1
M  V30 30 C -8.3317 3.5935 0.0 0
M  V30 31 C -6.4335 1.8692 0.0 0
M  V30 32 C 4.4629 6.6509 0.0 0
M  V30 33 C -9.4474 2.5647 0.0 0
M  V30 34 C -7.5492 0.8404 0.0 0
M  V30 35 C -9.0997 1.2316 0.0 0
M  V30 END ATOM
M  V30 BEGIN BOND
M  V30 1 2 1 2
M  V30 2 1 2 3
M  V30 3 1 2 4
M  V30 4 1 5 3 CFG=1
M  V30 5 2 4 6
M  V30 6 1 5 7
M  V30 7 1 5 8
M  V30 8 1 5 9
M  V30 9 1 6 10
M  V30 10 2 7 11
M  V30 11 1 7 12
M  V30 12 1 8 13 CFG=3
M  V30 13 1 8 14
M  V30 14 1 9 15 CFG=3
M  V30 15 1 9 16
M  V30 16 1 10 17 CFG=1
M  V30 17 1 10 18
M  V30 18 2 13 19
M  V30 19 1 14 20 CFG=1
M  V30 20 1 14 21
M  V30 21 1 15 22 CFG=3
M  V30 22 1 16 23 CFG=1
M  V30 23 1 18 24
M  V30 24 1 19 25
M  V30 25 2 21 26
M  V30 26 1 23 27
M  V30 27 1 24 28
M  V30 28 1 25 29
M  V30 29 2 27 30
M  V30 30 1 27 31
M  V30 31 1 29 32 CFG=3
M  V30 32 1 30 33
M  V30 33 2 31 34
M  V30 34 2 33 35
M  V30 35 1 12 16
M  V30 36 1 15 21
M  V30 37 1 28 29
M  V30 38 1 34 35
M  V30 END BOND
M  V30 BEGIN COLLECTION
M  V30 MDLV30/STEABS ATOMS=(8 5 8 9 10 14 15 16 29)
M  V30 END COLLECTION
M  V30 END CTAB
M  END
>  <Compound>
Cytochalasin B

>  <Origin>
Helminthosporium dematiodeum
Phoma sp. S-298
Preussia similis

>  <Reference>
Aldridge DC, Armstrong JJ, Speake RN, Turner WB (1967) The structures of cytochalasin A and B.  J. Chem. Soc. C, 1667-1676
Rothweiler W, Tamm C (1966) Isolation and structure of phomin. Cell Mol Life Sci 22:750
Kagho MD, Schmidt K, Lambert C, Kaufmann T, Jia L, Faix J, Rottner K, Stadler M, Stradal T, Klahn P. Comprehensive Cell Biological Investigation of Cytochalasin B Derivatives with Distinct Activities on the Actin Network. J Nat Prod. 2024 Oct 25;87(10):2421-2431. doi: 10.1021/acs.jnatprod.4c00676

>  <Actin Disruption Activity (1h Treatment)>
++

>  <Reversibilty>
+

>  <Box ID>
1C0037

>  <Quantity>
available

>  <Cytotoxicity in L929 mouse fibroblasts [µM]>
1.3

>  <Synonyms>
compound 1b
Phomin (compound 1)
compound 2

>  <Subclass>
Cytochalasin

>  <Molecular Formula>
C29H37NO5

>  <Total Molweight>
479.615

>  <Smiles>
C[C@@H]([C@@H]([C@H](Cc1ccccc1)NC1=O)[C@@]1([C@H]([C@@H]1O)/C=C/C[C@H](C)CCC[C@H](/C=C2)O)OC\2=O)C1=C

>  <Amino Acid>
Phenylalanine

>  <Cytotoxicity in L929 mouse Fibroblasts [µg/mL]>
0.6

>  <Cytotoxicity in KB3.1>


>  <Anti-Biofilm>
-

$$$$
Compound 44
Actelion Java MolfileCreator 2.0

  0  0  0  0  0  0              0 V3000
M  V30 BEGIN CTAB
M  V30 COUNTS 38 41 0 0 0
M  V30 BEGIN ATOM
M  V30 1 O 0.0 0.0 0.0 0
M  V30 2 C -0.036 1.5391 0.0 0
M  V30 3 O -1.3707 2.3447 0.0 0
M  V30 4 C 1.2144 2.3086 0.0 0
M  V30 5 C -1.4068 3.8838 0.0 0 CFG=2
M  V30 6 C 2.4529 1.6112 0.0 0
M  V30 7 C -1.7675 2.477 0.0 0
M  V30 8 C -0.1563 4.6534 0.0 0 CFG=1
M  V30 9 C -2.7415 4.6774 0.0 0 CFG=1
M  V30 10 C 3.7035 2.3808 0.0 0 CFG=1
M  V30 11 O -2.2365 1.0821 0.0 0
M  V30 12 N -3.2946 2.3808 0.0 0
M  V30 13 C 1.0821 3.968 0.0 0
M  V30 14 C -0.1923 6.1925 0.0 0 CFG=2
M  V30 15 C -2.7776 6.2165 0.0 0 CFG=1
M  V30 16 C -3.9079 3.7275 0.0 0 CFG=1
M  V30 17 O 3.6914 0.8777 0.0 0
M  V30 18 C 4.942 1.6834 0.0 0
M  V30 19 C 2.3327 4.7376 0.0 0
M  V30 20 O 1.0581 6.9621 0.0 0
M  V30 21 C -1.527 6.9981 0.0 0
M  V30 22 C -4.1123 7.0342 0.0 0
M  V30 23 C -5.4109 4.0882 0.0 0
M  V30 24 C 6.1925 2.4529 0.0 0
M  V30 25 C 3.5712 4.0522 0.0 0
M  V30 26 C 1.022 8.5012 0.0 0
M  V30 27 C -1.5631 8.5373 0.0 0
M  V30 28 C -6.4691 3.0301 0.0 0
M  V30 29 C 6.1564 3.992 0.0 0
M  V30 30 C 4.8217 4.8217 0.0 0 CFG=1
M  V30 31 O -0.3126 9.3068 0.0 0
M  V30 32 C 2.2726 9.2707 0.0 0
M  V30 33 C -7.9721 3.3908 0.0 0
M  V30 34 C -6.0723 1.6593 0.0 0
M  V30 35 C 4.7856 6.3608 0.0 0
M  V30 36 C -9.0303 2.3327 0.0 0
M  V30 37 C -7.1304 0.6012 0.0 0
M  V30 38 C -8.6334 0.9619 0.0 0
M  V30 END ATOM
M  V30 BEGIN BOND
M  V30 1 2 1 2
M  V30 2 1 2 3
M  V30 3 1 2 4
M  V30 4 1 5 3 CFG=1
M  V30 5 2 4 6
M  V30 6 1 5 7
M  V30 7 1 5 8
M  V30 8 1 5 9
M  V30 9 1 6 10
M  V30 10 2 7 11
M  V30 11 1 7 12
M  V30 12 1 8 13 CFG=3
M  V30 13 1 8 14
M  V30 14 1 9 15 CFG=3
M  V30 15 1 9 16
M  V30 16 1 10 17 CFG=1
M  V30 17 1 10 18
M  V30 18 2 13 19
M  V30 19 1 14 20 CFG=1
M  V30 20 1 14 21
M  V30 21 1 15 22 CFG=3
M  V30 22 1 16 23 CFG=1
M  V30 23 1 18 24
M  V30 24 1 19 25
M  V30 25 1 20 26
M  V30 26 2 21 27
M  V30 27 1 23 28
M  V30 28 1 24 29
M  V30 29 1 25 30
M  V30 30 2 26 31
M  V30 31 1 26 32
M  V30 32 2 28 33
M  V30 33 1 28 34
M  V30 34 1 30 35 CFG=3
M  V30 35 1 33 36
M  V30 36 2 34 37
M  V30 37 2 36 38
M  V30 38 1 12 16
M  V30 39 1 15 21
M  V30 40 1 29 30
M  V30 41 1 37 38
M  V30 END BOND
M  V30 BEGIN COLLECTION
M  V30 MDLV30/STEABS ATOMS=(8 5 8 9 10 14 15 16 30)
M  V30 END COLLECTION
M  V30 END CTAB
M  END
>  <Compound>
Cytochalasin B1

>  <Origin>
Preussia similis
semi-synthetic

>  <Reference>
Kagho MD, Schmidt K, Lambert C, Kaufmann T, Jia L, Faix J, Rottner K, Stadler M, Stradal T, Klahn P. Comprehensive Cell Biological Investigation of Cytochalasin B Derivatives with Distinct Activities on the Actin Network. J Nat Prod. 2024 Oct 25;87(10):2421-2431. doi: 10.1021/acs.jnatprod.4c00676

>  <Actin Disruption Activity (1h Treatment)>
-

>  <Reversibilty>
+

>  <Box ID>
2C0074

>  <Quantity>
0.83 mg
1.3 mg
1.3 mg

>  <Cytotoxicity in L929 mouse fibroblasts [µM]>
15.9

>  <Synonyms>
CB1
compound 3

>  <Subclass>
Cytochalasin

>  <Molecular Formula>
C31H39NO6

>  <Total Molweight>
521.652

>  <Smiles>
C[C@@H]([C@@H]([C@H](Cc1ccccc1)NC1=O)[C@@]1([C@H]([C@@H]1OC(C)=O)/C=C/C[C@H](C)CCC[C@H](/C=C2)O)OC\2=O)C1=C

>  <Amino Acid>
Phenylalanine

>  <Cytotoxicity in L929 mouse Fibroblasts [µg/mL]>
8.3 

>  <Cytotoxicity in KB3.1>


>  <Anti-Biofilm>
not tested

$$$$
Compound 45
Actelion Java MolfileCreator 2.0

  0  0  0  0  0  0              0 V3000
M  V30 BEGIN CTAB
M  V30 COUNTS 36 39 0 0 0
M  V30 BEGIN ATOM
M  V30 1 O 0.0 0.0 0.0 0
M  V30 2 C -0.0361 1.5414 0.0 0
M  V30 3 O -1.3728 2.3603 0.0 0
M  V30 4 C 1.2162 2.3121 0.0 0
M  V30 5 C -1.4089 3.9017 0.0 0 CFG=2
M  V30 6 C 2.4566 1.6136 0.0 0
M  V30 7 C -1.7702 2.4927 0.0 0
M  V30 8 C -0.1565 4.6724 0.0 0 CFG=1
M  V30 9 C -2.7456 4.6844 0.0 0 CFG=1
M  V30 10 C 3.709 2.3843 0.0 0 CFG=1
M  V30 11 O -2.2398 1.0958 0.0 0
M  V30 12 N -3.2996 2.3964 0.0 0
M  V30 13 C 1.0838 3.986 0.0 0
M  V30 14 C -0.1926 6.2138 0.0 0 CFG=2
M  V30 15 C -2.7817 6.2259 0.0 0 CFG=1
M  V30 16 C -3.9137 3.7331 0.0 0 CFG=1
M  V30 17 O 3.697 0.879 0.0 0
M  V30 18 C 4.9494 1.6859 0.0 0
M  V30 19 C -4.1064 1.156 0.0 0
M  V30 20 C 2.3362 4.7567 0.0 0
M  V30 21 O 1.0597 6.9845 0.0 0
M  V30 22 C -1.5293 7.0206 0.0 0
M  V30 23 C -4.1184 7.0447 0.0 0
M  V30 24 C -5.419 4.0944 0.0 0
M  V30 25 C 6.2018 2.4566 0.0 0
M  V30 26 C 3.5765 4.0703 0.0 0
M  V30 27 C -1.5655 8.5621 0.0 0
M  V30 28 C -6.4787 3.0346 0.0 0
M  V30 29 C 6.1656 3.998 0.0 0
M  V30 30 C 4.8289 4.841 0.0 0 CFG=1
M  V30 31 C -7.984 3.3959 0.0 0
M  V30 32 C -6.0813 1.6618 0.0 0
M  V30 33 C 4.7928 6.3824 0.0 0
M  V30 34 C -9.0438 2.3362 0.0 0
M  V30 35 C -7.1411 0.6021 0.0 0
M  V30 36 C -8.6464 0.9633 0.0 0
M  V30 END ATOM
M  V30 BEGIN BOND
M  V30 1 2 1 2
M  V30 2 1 2 3
M  V30 3 1 2 4
M  V30 4 1 5 3 CFG=1
M  V30 5 2 4 6
M  V30 6 1 5 7
M  V30 7 1 5 8
M  V30 8 1 5 9
M  V30 9 1 6 10
M  V30 10 2 7 11
M  V30 11 1 7 12
M  V30 12 1 8 13 CFG=3
M  V30 13 1 8 14
M  V30 14 1 9 15 CFG=3
M  V30 15 1 9 16
M  V30 16 1 10 17 CFG=1
M  V30 17 1 10 18
M  V30 18 1 12 19
M  V30 19 2 13 20
M  V30 20 1 14 21 CFG=1
M  V30 21 1 14 22
M  V30 22 1 15 23 CFG=3
M  V30 23 1 16 24 CFG=1
M  V30 24 1 18 25
M  V30 25 1 20 26
M  V30 26 2 22 27
M  V30 27 1 24 28
M  V30 28 1 25 29
M  V30 29 1 26 30
M  V30 30 2 28 31
M  V30 31 1 28 32
M  V30 32 1 30 33 CFG=3
M  V30 33 1 31 34
M  V30 34 2 32 35
M  V30 35 2 34 36
M  V30 36 1 12 16
M  V30 37 1 15 22
M  V30 38 1 29 30
M  V30 39 1 35 36
M  V30 END BOND
M  V30 BEGIN COLLECTION
M  V30 MDLV30/STEABS ATOMS=(8 5 8 9 10 14 15 16 30)
M  V30 END COLLECTION
M  V30 END CTAB
M  END
>  <Compound>
Cytochalasin B2

>  <Origin>
Preussia similis
semi-synthetic

>  <Reference>
Kagho MD, Schmidt K, Lambert C, Kaufmann T, Jia L, Faix J, Rottner K, Stadler M, Stradal T, Klahn P. Comprehensive Cell Biological Investigation of Cytochalasin B Derivatives with Distinct Activities on the Actin Network. J Nat Prod. 2024 Oct 25;87(10):2421-2431. doi: 10.1021/acs.jnatprod.4c00676

>  <Actin Disruption Activity (1h Treatment)>
-

>  <Reversibilty>
+

>  <Box ID>
2C0075

>  <Quantity>
0.41 mg
3.9 mg

>  <Cytotoxicity in L929 mouse fibroblasts [µM]>
no inhibition

>  <Synonyms>
CB2
compound 4

>  <Subclass>
Cytochalasin

>  <Molecular Formula>
C30H39NO5

>  <Total Molweight>
493.642

>  <Smiles>
C[C@@H]([C@@H]([C@H](Cc1ccccc1)N(C)C1=O)[C@@]1([C@H]([C@@H]1O)/C=C/C[C@H](C)CCC[C@@H](/C=C2)O)OC\2=O)C1=C

>  <Amino Acid>
Phenylalanine

>  <Cytotoxicity in L929 mouse Fibroblasts [µg/mL]>
no inhibition

>  <Cytotoxicity in KB3.1>


>  <Anti-Biofilm>
not tested

$$$$
Compound 46
Actelion Java MolfileCreator 2.0

  0  0  0  0  0  0              0 V3000
M  V30 BEGIN CTAB
M  V30 COUNTS 38 41 0 0 0
M  V30 BEGIN ATOM
M  V30 1 O 0.0 0.0 0.0 0
M  V30 2 C -0.0485 1.5537 0.0 0
M  V30 3 O -1.3959 2.3791 0.0 0
M  V30 4 C 1.1895 2.3306 0.0 0
M  V30 5 C -1.4445 3.9329 0.0 0 CFG=2
M  V30 6 C 2.4156 1.6387 0.0 0
M  V30 7 C -1.8208 2.5369 0.0 0
M  V30 8 C -0.2063 4.7219 0.0 0 CFG=1
M  V30 9 C -2.7919 4.7219 0.0 0 CFG=1
M  V30 10 C 3.6537 2.4156 0.0 0 CFG=1
M  V30 11 O -2.3063 1.1531 0.0 0
M  V30 12 N -3.3624 2.452 0.0 0
M  V30 13 C 1.0196 4.0421 0.0 0
M  V30 14 C -0.2549 6.2757 0.0 0 CFG=2
M  V30 15 C -2.8404 6.2757 0.0 0 CFG=1
M  V30 16 C -3.9693 3.7872 0.0 0 CFG=1
M  V30 17 O 3.6294 0.9225 0.0 0
M  V30 18 C 4.8797 1.7236 0.0 0
M  V30 19 C -4.1878 1.226 0.0 0
M  V30 20 C 2.2577 4.8312 0.0 0
M  V30 21 O 0.9832 7.0525 0.0 0
M  V30 22 C -1.6023 7.089 0.0 0
M  V30 23 C -4.1878 7.1011 0.0 0
M  V30 24 C -5.4866 4.1635 0.0 0
M  V30 25 C 6.1179 2.5005 0.0 0
M  V30 26 O -3.5202 -0.0121 0.0 0
M  V30 27 C -5.7416 1.2988 0.0 0
M  V30 28 C 3.4838 4.1514 0.0 0
M  V30 29 C -1.6508 8.6427 0.0 0
M  V30 30 C -6.5549 3.1196 0.0 0
M  V30 31 C 6.0693 4.0543 0.0 0
M  V30 32 C 4.7219 4.9404 0.0 0 CFG=1
M  V30 33 C -8.0722 3.4959 0.0 0
M  V30 34 C -6.1664 1.7601 0.0 0
M  V30 35 C 4.6734 6.4942 0.0 0
M  V30 36 C -9.1404 2.452 0.0 0
M  V30 37 C -7.2346 0.7161 0.0 0
M  V30 38 C -8.752 1.0924 0.0 0
M  V30 END ATOM
M  V30 BEGIN BOND
M  V30 1 2 1 2
M  V30 2 1 2 3
M  V30 3 1 2 4
M  V30 4 1 5 3 CFG=1
M  V30 5 2 4 6
M  V30 6 1 5 7
M  V30 7 1 5 8
M  V30 8 1 5 9
M  V30 9 1 6 10
M  V30 10 2 7 11
M  V30 11 1 7 12
M  V30 12 1 8 13 CFG=3
M  V30 13 1 8 14
M  V30 14 1 9 15 CFG=3
M  V30 15 1 9 16
M  V30 16 1 10 17 CFG=1
M  V30 17 1 10 18
M  V30 18 1 12 19
M  V30 19 2 13 20
M  V30 20 1 14 21 CFG=1
M  V30 21 1 14 22
M  V30 22 1 15 23 CFG=3
M  V30 23 1 16 24 CFG=1
M  V30 24 1 18 25
M  V30 25 2 19 26
M  V30 26 1 19 27
M  V30 27 1 20 28
M  V30 28 2 22 29
M  V30 29 1 24 30
M  V30 30 1 25 31
M  V30 31 1 28 32
M  V30 32 2 30 33
M  V30 33 1 30 34
M  V30 34 1 32 35 CFG=3
M  V30 35 1 33 36
M  V30 36 2 34 37
M  V30 37 2 36 38
M  V30 38 1 12 16
M  V30 39 1 15 22
M  V30 40 1 31 32
M  V30 41 1 37 38
M  V30 END BOND
M  V30 BEGIN COLLECTION
M  V30 MDLV30/STEABS ATOMS=(8 5 8 9 10 14 15 16 32)
M  V30 END COLLECTION
M  V30 END CTAB
M  END
>  <Compound>
Cytochalasin B3

>  <Origin>
Preussia similis
semi-synthetic

>  <Reference>
Kagho MD, Schmidt K, Lambert C, Kaufmann T, Jia L, Faix J, Rottner K, Stadler M, Stradal T, Klahn P. Comprehensive Cell Biological Investigation of Cytochalasin B Derivatives with Distinct Activities on the Actin Network. J Nat Prod. 2024 Oct 25;87(10):2421-2431. doi: 10.1021/acs.jnatprod.4c00676

>  <Actin Disruption Activity (1h Treatment)>
-

>  <Reversibilty>
+

>  <Box ID>
2C0078

>  <Quantity>
0.4 mg

>  <Cytotoxicity in L929 mouse fibroblasts [µM]>
9.4

>  <Synonyms>
CB3
compound 5

>  <Subclass>
Cytochalasin

>  <Molecular Formula>
C31H39NO6

>  <Total Molweight>
521.652

>  <Smiles>
C[C@@H]([C@@H]([C@H](Cc1ccccc1)N(C(C)=O)C1=O)[C@@]1([C@H]([C@@H]1O)/C=C/C[C@H](C)CCC[C@@H](/C=C2)O)OC\2=O)C1=C

>  <Amino Acid>
Phenylalanine

>  <Cytotoxicity in L929 mouse Fibroblasts [µg/mL]>
4.8

>  <Cytotoxicity in KB3.1>


>  <Anti-Biofilm>
not tested

$$$$
Compound 47
Actelion Java MolfileCreator 2.0

  0  0  0  0  0  0              0 V3000
M  V30 BEGIN CTAB
M  V30 COUNTS 38 41 0 0 0
M  V30 BEGIN ATOM
M  V30 1 O 0.0 0.0 0.0 0
M  V30 2 C -0.0359 1.5351 0.0 0
M  V30 3 O -1.3672 2.3506 0.0 0
M  V30 4 C 1.2113 2.3027 0.0 0
M  V30 5 C -1.4032 3.8858 0.0 0 CFG=2
M  V30 6 C 2.4466 1.6071 0.0 0
M  V30 7 C -1.763 2.4826 0.0 0
M  V30 8 C -0.1559 4.6534 0.0 0 CFG=1
M  V30 9 C -2.7344 4.6773 0.0 0 CFG=1
M  V30 10 C 3.6939 2.3746 0.0 0 CFG=1
M  V30 11 O -2.2307 1.0913 0.0 0
M  V30 12 N -3.2861 2.3866 0.0 0
M  V30 13 C 1.0793 3.9697 0.0 0
M  V30 14 C -0.1918 6.1885 0.0 0 CFG=2
M  V30 15 C -2.7704 6.2125 0.0 0 CFG=1
M  V30 16 C -3.8978 3.7299 0.0 0 CFG=1
M  V30 17 O 3.6819 0.8755 0.0 0
M  V30 18 C 4.9292 1.679 0.0 0
M  V30 19 C 2.3267 4.7373 0.0 0
M  V30 20 O 1.0554 6.9561 0.0 0
M  V30 21 C -1.5231 7.004 0.0 0
M  V30 22 C -4.1017 7.028 0.0 0
M  V30 23 C -5.3969 4.0897 0.0 0
M  V30 24 C 2.3027 0.1079 0.0 0
M  V30 25 C 6.1765 2.4466 0.0 0
M  V30 26 C 3.562 4.0537 0.0 0
M  V30 27 C -1.5591 8.5392 0.0 0
M  V30 28 C -6.4524 3.0343 0.0 0
M  V30 29 O 0.8994 0.8994 0.0 0
M  V30 30 C 2.2907 -1.3912 0.0 0
M  V30 31 C 6.1405 3.9817 0.0 0
M  V30 32 C 4.8093 4.8213 0.0 0 CFG=1
M  V30 33 C -7.9515 3.3941 0.0 0
M  V30 34 C -6.0566 1.667 0.0 0
M  V30 35 C 4.7733 6.3564 0.0 0
M  V30 36 C -9.0069 2.3386 0.0 0
M  V30 37 C -7.112 0.6116 0.0 0
M  V30 38 C -8.6111 0.9714 0.0 0
M  V30 END ATOM
M  V30 BEGIN BOND
M  V30 1 2 1 2
M  V30 2 1 2 3
M  V30 3 1 2 4
M  V30 4 1 5 3 CFG=1
M  V30 5 2 4 6
M  V30 6 1 5 7
M  V30 7 1 5 8
M  V30 8 1 5 9
M  V30 9 1 6 10
M  V30 10 2 7 11
M  V30 11 1 7 12
M  V30 12 1 8 13 CFG=3
M  V30 13 1 8 14
M  V30 14 1 9 15 CFG=3
M  V30 15 1 9 16
M  V30 16 1 10 17 CFG=1
M  V30 17 1 10 18
M  V30 18 2 13 19
M  V30 19 1 14 20 CFG=1
M  V30 20 1 14 21
M  V30 21 1 15 22 CFG=3
M  V30 22 1 16 23 CFG=1
M  V30 23 1 17 24
M  V30 24 1 18 25
M  V30 25 1 19 26
M  V30 26 2 21 27
M  V30 27 1 23 28
M  V30 28 2 24 29
M  V30 29 1 24 30
M  V30 30 1 25 31
M  V30 31 1 26 32
M  V30 32 2 28 33
M  V30 33 1 28 34
M  V30 34 1 32 35 CFG=3
M  V30 35 1 33 36
M  V30 36 2 34 37
M  V30 37 2 36 38
M  V30 38 1 12 16
M  V30 39 1 15 21
M  V30 40 1 31 32
M  V30 41 1 37 38
M  V30 END BOND
M  V30 BEGIN COLLECTION
M  V30 MDLV30/STEABS ATOMS=(8 5 8 9 10 14 15 16 32)
M  V30 END COLLECTION
M  V30 END CTAB
M  END
>  <Compound>
Cytochalasin B4

>  <Origin>
Preussia similis
semi-synthetic

>  <Reference>
Kagho MD, Schmidt K, Lambert C, Kaufmann T, Jia L, Faix J, Rottner K, Stadler M, Stradal T, Klahn P. Comprehensive Cell Biological Investigation of Cytochalasin B Derivatives with Distinct Activities on the Actin Network. J Nat Prod. 2024 Oct 25;87(10):2421-2431. doi: 10.1021/acs.jnatprod.4c00676

>  <Actin Disruption Activity (1h Treatment)>
++

>  <Reversibilty>
+

>  <Box ID>
2C0079

>  <Quantity>
0.8 mg
1.3 mg
1.3 mg

>  <Cytotoxicity in L929 mouse fibroblasts [µM]>
4.8

>  <Synonyms>
CB4
compound 6

>  <Subclass>
Cytochalasin

>  <Molecular Formula>
C31H39NO6

>  <Total Molweight>
521.652

>  <Smiles>
C[C@@H]([C@@H]([C@H](Cc1ccccc1)NC1=O)[C@@]1([C@H]([C@@H]1O)/C=C/C[C@H](C)CCC[C@H](/C=C2)OC(C)=O)OC\2=O)C1=C

>  <Amino Acid>
Phenylalanine

>  <Cytotoxicity in L929 mouse Fibroblasts [µg/mL]>
2.5

>  <Cytotoxicity in KB3.1>


>  <Anti-Biofilm>
not tested

$$$$
Compound 48
Actelion Java MolfileCreator 2.0

  0  0  0  0  0  0              0 V3000
M  V30 BEGIN CTAB
M  V30 COUNTS 37 40 0 0 0
M  V30 BEGIN ATOM
M  V30 1 O 0.0 0.0 0.0 0
M  V30 2 C -0.9734 1.2168 0.0 0
M  V30 3 C -2.4945 0.9247 0.0 0 CFG=2
M  V30 4 C -0.365 2.6162 0.0 0 CFG=2
M  V30 5 O -1.7522 -0.2677 0.0 0
M  V30 6 C -3.7113 1.8982 0.0 0
M  V30 7 C -3.3828 -0.1216 0.0 0
M  V30 8 C -1.0951 4.0155 0.0 0
M  V30 9 C 1.0708 2.677 0.0 0
M  V30 10 C -5.062 1.1803 0.0 0
M  V30 11 C -2.6162 4.4171 0.0 0
M  V30 12 C -6.4127 1.9712 0.0 0 CFG=1
M  V30 13 C -3.833 3.5653 0.0 0
M  V30 14 O -6.4005 0.7666 0.0 0
M  V30 15 C -6.4735 3.5288 0.0 0 CFG=1
M  V30 16 C -5.1837 4.3562 0.0 0 CFG=2
M  V30 17 C -7.7025 0.0121 0.0 0
M  V30 18 C -6.8508 2.1294 0.0 0
M  V30 19 C -7.8242 4.3076 0.0 0 CFG=1
M  V30 20 C -5.2445 5.9138 0.0 0 CFG=2
M  V30 21 O -9.0897 0.7666 0.0 0
M  V30 22 C -7.6782 -1.4115 0.0 0
M  V30 23 O -7.3618 1.0586 0.0 0
M  V30 24 N -8.3961 2.0321 0.0 0
M  V30 25 C -7.8851 5.8651 0.0 0
M  V30 26 C -8.9802 3.3828 0.0 0 CFG=1
M  V30 27 O -4.0155 6.7047 0.0 0
M  V30 28 C -6.5952 6.7047 0.0 0
M  V30 29 C -9.2358 6.6439 0.0 0
M  V30 30 C -10.5013 3.76 0.0 0
M  V30 31 C -6.6561 8.2623 0.0 0
M  V30 32 C -11.5478 2.7135 0.0 0
M  V30 33 C -13.0688 3.0907 0.0 0
M  V30 34 C -11.1219 1.3506 0.0 0
M  V30 35 C -14.1153 2.0442 0.0 0
M  V30 36 C -12.1683 0.3042 0.0 0
M  V30 37 C -13.6894 0.6814 0.0 0
M  V30 END ATOM
M  V30 BEGIN BOND
M  V30 1 2 1 2
M  V30 2 1 2 3
M  V30 3 1 2 4
M  V30 4 1 3 5 CFG=3
M  V30 5 1 3 6
M  V30 6 1 3 7
M  V30 7 1 4 8
M  V30 8 1 4 9 CFG=3
M  V30 9 2 6 10
M  V30 10 1 8 11
M  V30 11 1 10 12
M  V30 12 2 11 13
M  V30 13 1 12 14 CFG=1
M  V30 14 1 12 15
M  V30 15 1 16 13 CFG=3
M  V30 16 1 14 17
M  V30 17 1 15 18 CFG=3
M  V30 18 1 15 19
M  V30 19 1 16 20
M  V30 20 2 17 21
M  V30 21 1 17 22
M  V30 22 2 18 23
M  V30 23 1 18 24
M  V30 24 1 19 25 CFG=3
M  V30 25 1 19 26
M  V30 26 1 20 27 CFG=1
M  V30 27 1 20 28
M  V30 28 1 25 29
M  V30 29 1 26 30 CFG=1
M  V30 30 1 28 31
M  V30 31 1 30 32
M  V30 32 2 32 33
M  V30 33 1 32 34
M  V30 34 1 33 35
M  V30 35 2 34 36
M  V30 36 2 35 37
M  V30 37 1 15 16
M  V30 38 1 24 26
M  V30 39 2 25 28
M  V30 40 1 36 37
M  V30 END BOND
M  V30 BEGIN COLLECTION
M  V30 MDLV30/STEABS ATOMS=(8 3 4 12 15 16 19 20 26)
M  V30 END COLLECTION
M  V30 END CTAB
M  END
>  <Compound>
Cytochalasin C

>  <Origin>
Purchased

>  <Reference>
Lambert C, Pourmoghaddam MJ, Cedeño-Sanchez M, Surup F, Khodaparast SA, Krisai-Greilhuber I, Voglmayr H, Stradal TEB, Stadler M. Resolution of the Hypoxylon fuscum Complex (Hypoxylaceae, Xylariales) and Discovery and Biological Characterization of Two of Its Prominent Secondary Metabolites. J Fungi (Basel). 2021 Feb 11;7(2):131. doi: 10.3390/jof7020131. PMID: 33670169; PMCID: PMC7916920.
Yuyama, K.T.; Wendt, L.; Surup, F.; Kretz, R.; Chepkirui, C.; Wittstein, K.; Boonlarppradab, C.; Wongkanoun, S.; Luangsa-ard, J.J.; Stadler, M.; et al. Cytochalasans act as inhibitors of biofilm formation of Staphylococcus aureus. Biomolecules 2015, 8, 4

>  <Actin Disruption Activity (1h Treatment)>
+++

>  <Reversibilty>
+

>  <Box ID>
1C0047

>  <Quantity>
1 mg

>  <Cytotoxicity in L929 mouse fibroblasts [µM]>
not tested

>  <Synonyms>
compound 7

>  <Subclass>
Cytochalasin

>  <Molecular Formula>
C30H37NO6

>  <Total Molweight>
507.625

>  <Smiles>
C[C@@H](C/C=C/[C@@H]([C@@H](C(C)=C(C)[C@H]1[C@H](Cc2ccccc2)N2)O)C1([C@@H](/C=C/[C@@]1(C)O)OC(C)=O)C2=O)C1=O

>  <Amino Acid>
Phenylalanine

>  <Cytotoxicity in L929 mouse Fibroblasts [µg/mL]>
not tested

>  <Cytotoxicity in KB3.1>


>  <Anti-Biofilm>
+

$$$$
Compound 49
Actelion Java MolfileCreator 2.0

  0  0  0  0  0  0              0 V3000
M  V30 BEGIN CTAB
M  V30 COUNTS 37 40 0 0 0
M  V30 BEGIN ATOM
M  V30 1 O 0.0 0.0 0.0 0
M  V30 2 C -0.9806 1.2078 0.0 0
M  V30 3 C -2.4635 0.9327 0.0 0 CFG=2
M  V30 4 C -0.4066 2.5831 0.0 0 CFG=2
M  V30 5 O -1.7938 -0.3468 0.0 0
M  V30 6 C -3.6713 1.9134 0.0 0
M  V30 7 C -3.6474 0.0119 0.0 0
M  V30 8 C -1.0762 3.9583 0.0 0
M  V30 9 C 1.0165 2.6309 0.0 0
M  V30 10 C -5.0107 1.2198 0.0 0
M  V30 11 C -2.5591 4.3291 0.0 0
M  V30 12 C -6.3501 2.033 0.0 0 CFG=1
M  V30 13 C -3.767 3.4441 0.0 0
M  V30 14 O -6.2305 0.562 0.0 0
M  V30 15 C -6.3979 3.5517 0.0 0 CFG=1
M  V30 16 C -5.1064 4.1855 0.0 0 CFG=2
M  V30 17 C -7.4742 -0.275 0.0 0
M  V30 18 C -6.7687 2.1645 0.0 0
M  V30 19 C -7.7134 4.3649 0.0 0 CFG=1
M  V30 20 C -5.1303 5.7043 0.0 0 CFG=2
M  V30 21 O -8.8734 0.3468 0.0 0
M  V30 22 C -7.3666 -1.6861 0.0 0
M  V30 23 O -7.3068 0.6577 0.0 0
M  V30 24 N -8.2874 2.0927 0.0 0
M  V30 25 C -7.7373 5.8837 0.0 0 CFG=1
M  V30 26 C -8.8854 3.4321 0.0 0 CFG=1
M  V30 27 O -3.8866 6.4458 0.0 0
M  V30 28 C -6.4458 6.5175 0.0 0
M  V30 29 C -9.0528 6.6969 0.0 0
M  V30 30 C -10.3683 3.8029 0.0 0
M  V30 31 C -6.4697 8.0363 0.0 0
M  V30 32 C -11.4326 2.7624 0.0 0
M  V30 33 C -12.9155 3.1332 0.0 0
M  V30 34 C -11.0619 1.3991 0.0 0
M  V30 35 C -13.9798 2.0927 0.0 0
M  V30 36 C -12.1262 0.3587 0.0 0
M  V30 37 C -13.6091 0.7294 0.0 0
M  V30 END ATOM
M  V30 BEGIN BOND
M  V30 1 2 1 2
M  V30 2 1 2 3
M  V30 3 1 2 4
M  V30 4 1 3 5 CFG=3
M  V30 5 1 3 6
M  V30 6 1 3 7
M  V30 7 1 4 8
M  V30 8 1 4 9 CFG=3
M  V30 9 2 6 10
M  V30 10 1 8 11
M  V30 11 1 10 12
M  V30 12 2 11 13
M  V30 13 1 12 14 CFG=1
M  V30 14 1 12 15
M  V30 15 1 16 13 CFG=3
M  V30 16 1 14 17
M  V30 17 1 15 18 CFG=3
M  V30 18 1 15 19
M  V30 19 1 16 20
M  V30 20 2 17 21
M  V30 21 1 17 22
M  V30 22 2 18 23
M  V30 23 1 18 24
M  V30 24 1 19 25 CFG=3
M  V30 25 1 19 26
M  V30 26 1 20 27 CFG=1
M  V30 27 1 20 28
M  V30 28 1 25 29 CFG=3
M  V30 29 1 26 30 CFG=1
M  V30 30 2 28 31
M  V30 31 1 30 32
M  V30 32 2 32 33
M  V30 33 1 32 34
M  V30 34 1 33 35
M  V30 35 2 34 36
M  V30 36 2 35 37
M  V30 37 1 15 16
M  V30 38 1 24 26
M  V30 39 1 25 28
M  V30 40 1 36 37
M  V30 END BOND
M  V30 BEGIN COLLECTION
M  V30 MDLV30/STEABS ATOMS=(9 3 4 12 15 16 19 20 25 26)
M  V30 END COLLECTION
M  V30 END CTAB
M  END
>  <Compound>
Cytochalasin D

>  <Origin>
Purchased

>  <Reference>
Aldridge DC, Turner WB. The identity of zygosporin A and cytochalasin D. J Antibiot (Tokyo). 1969 Apr;22(4):170. doi: 10.7164/antibiotics.22.170.

>  <Actin Disruption Activity (1h Treatment)>
++

>  <Reversibilty>
+

>  <Box ID>
1C0046

>  <Quantity>
available

>  <Cytotoxicity in L929 mouse fibroblasts [µM]>
0.1

>  <Synonyms>
Zygosporin A

>  <Subclass>
Cytochalasin

>  <Molecular Formula>
C30H37NO6

>  <Total Molweight>
507.625

>  <Smiles>
C[C@@H]([C@@H]([C@H](Cc1ccccc1)N1)[C@@]([C@H]([C@@H]2O)/C=C/C[C@H](C)C([C@@](C)(/C=C3)O)=O)([C@@H]\3OC(C)=O)C1=O)C2=C

>  <Amino Acid>
Phenylalanine

>  <Cytotoxicity in L929 mouse Fibroblasts [µg/mL]>
0.075

>  <Cytotoxicity in KB3.1>


>  <Anti-Biofilm>
-

$$$$
Compound 50
Actelion Java MolfileCreator 2.0

  0  0  0  0  0  0              0 V3000
M  V30 BEGIN CTAB
M  V30 COUNTS 36 40 0 0 0
M  V30 BEGIN ATOM
M  V30 1 O 0.0 0.0 0.0 0
M  V30 2 C -0.0395 1.5297 0.0 0
M  V30 3 O 1.2132 2.3342 0.0 0
M  V30 4 O -1.3715 2.3342 0.0 0
M  V30 5 C 2.4529 1.6221 0.0 0
M  V30 6 C -1.411 3.864 0.0 0 CFG=2
M  V30 7 C 3.6925 2.4133 0.0 0
M  V30 8 C -1.7803 2.4529 0.0 0
M  V30 9 C -0.1582 4.6553 0.0 0 CFG=1
M  V30 10 C -2.7298 4.6684 0.0 0 CFG=1
M  V30 11 C 5.0641 1.9913 0.0 0 CFG=1
M  V30 12 O -2.2551 1.0418 0.0 0
M  V30 13 N -3.2969 2.3474 0.0 0
M  V30 14 C 1.0945 3.9431 0.0 0
M  V30 15 C -0.1846 6.185 0.0 0 CFG=2
M  V30 16 C -2.7562 6.1982 0.0 0 CFG=1
M  V30 17 C -3.8772 3.7321 0.0 0 CFG=1
M  V30 18 O 6.6598 1.7803 0.0 0
M  V30 19 C 5.8817 3.231 0.0 0
M  V30 20 C 4.6816 0.5802 0.0 0
M  V30 21 C 2.3342 4.7344 0.0 0
M  V30 22 O -0.3428 7.8731 0.0 0
M  V30 23 C -1.5034 6.9895 0.0 0 CFG=1
M  V30 24 C -4.075 7.0027 0.0 0
M  V30 25 C -5.3674 4.1014 0.0 0
M  V30 26 O 7.3324 3.2705 0.0 0
M  V30 27 C 4.985 4.4706 0.0 0 CFG=2
M  V30 28 C 3.5739 4.0222 0.0 0
M  V30 29 C -1.5297 8.5193 0.0 0
M  V30 30 C -6.3961 3.0463 0.0 0
M  V30 31 C 5.407 5.9213 0.0 0
M  V30 32 C -7.8863 3.4156 0.0 0
M  V30 33 C -5.974 1.6748 0.0 0
M  V30 34 C -8.9149 2.3606 0.0 0
M  V30 35 C -7.0027 0.6198 0.0 0
M  V30 36 C -8.4929 0.989 0.0 0
M  V30 END ATOM
M  V30 BEGIN BOND
M  V30 1 2 1 2
M  V30 2 1 2 3
M  V30 3 1 2 4
M  V30 4 1 3 5
M  V30 5 1 6 4 CFG=1
M  V30 6 2 5 7
M  V30 7 1 6 8
M  V30 8 1 6 9
M  V30 9 1 6 10
M  V30 10 1 7 11
M  V30 11 2 8 12
M  V30 12 1 8 13
M  V30 13 1 9 14 CFG=3
M  V30 14 1 9 15
M  V30 15 1 10 16 CFG=3
M  V30 16 1 10 17
M  V30 17 1 11 18 CFG=3
M  V30 18 1 11 19
M  V30 19 1 11 20
M  V30 20 2 14 21
M  V30 21 1 15 22 CFG=1
M  V30 22 1 15 23
M  V30 23 1 16 24 CFG=3
M  V30 24 1 17 25 CFG=1
M  V30 25 2 19 26
M  V30 26 1 19 27
M  V30 27 1 21 28
M  V30 28 1 23 29 CFG=3
M  V30 29 1 25 30
M  V30 30 1 27 31 CFG=3
M  V30 31 2 30 32
M  V30 32 1 30 33
M  V30 33 1 32 34
M  V30 34 2 33 35
M  V30 35 2 34 36
M  V30 36 1 13 17
M  V30 37 1 16 23
M  V30 38 1 22 23
M  V30 39 1 27 28
M  V30 40 1 35 36
M  V30 END BOND
M  V30 BEGIN COLLECTION
M  V30 MDLV30/STEABS ATOMS=(9 6 9 10 11 15 16 17 23 27)
M  V30 END COLLECTION
M  V30 END CTAB
M  END
>  <Compound>
Cytochalasin E

>  <Origin>
Dematophora necatrix
Nemania diffusa

>  <Reference>
Pourmoghaddam, M.J., Ekiz, G., Lambert, C. et al. Studies on the secondary metabolism of Rosellinia and Dematophora strains (Xylariaceae) from Iran. Mycol Progress 21, 65 (2022). https://doi.org/10.1007/s11557-022-01816-x
Demir, Ö.; Schmidt, K.; Schulz, B.; Stradal, T.E.B.; Surup, F. Cytochalasins from the Ash Endophytic Fungus Nemania diffusa DSM 116299. Molecules 2025, 30, 957. https://doi.org/10.3390/molecules30040957

>  <Actin Disruption Activity (1h Treatment)>
++

>  <Reversibilty>
-

>  <Box ID>
1C0041

>  <Quantity>
0.02 mg
0.92 mg

>  <Cytotoxicity in L929 mouse fibroblasts [µM]>
0.26

>  <Synonyms>
compound 6
compound 5

>  <Subclass>
Cytochalasin

>  <Molecular Formula>
C28H33NO7

>  <Total Molweight>
495.57

>  <Smiles>
C[C@@H]([C@@H]([C@H](Cc1ccccc1)NC1=O)[C@@]11OC(O/C=C/[C@@]2(C)O)=O)[C@@]3(C)O[C@H]3[C@@H]1/C=C/C[C@H](C)C2=O

>  <Amino Acid>
Phenylalanine

>  <Cytotoxicity in L929 mouse Fibroblasts [µg/mL]>
0.13

>  <Cytotoxicity in KB3.1>


>  <Anti-Biofilm>
-

$$$$
Compound 51
Actelion Java MolfileCreator 2.0

  0  0  0  0  0  0              0 V3000
M  V30 BEGIN CTAB
M  V30 COUNTS 35 39 0 0 0
M  V30 BEGIN ATOM
M  V30 1 O 0.0 0.0 0.0 0
M  V30 2 C -0.0126 1.5541 0.0 0
M  V30 3 O -0.7454 2.3628 0.0 0
M  V30 4 C 1.2761 2.3123 0.0 0
M  V30 5 C -1.3393 3.9043 0.0 0 CFG=2
M  V30 6 C 2.5397 1.5794 0.0 0
M  V30 7 C -1.7057 2.4639 0.0 0
M  V30 8 C -0.0505 4.6625 0.0 0 CFG=1
M  V30 9 C -2.6787 4.713 0.0 0 CFG=1
M  V30 10 C 3.8285 2.3375 0.0 0 CFG=2
M  V30 11 O -2.009 1.2888 0.0 0
M  V30 12 N -3.2473 2.3754 0.0 0
M  V30 13 C 1.213 3.9296 0.0 0
M  V30 14 C -0.0631 6.2166 0.0 0 CFG=2
M  V30 15 C -2.6913 6.2672 0.0 0 CFG=1
M  V30 16 C -3.8664 3.7527 0.0 0 CFG=1
M  V30 17 O 3.7906 0.7454 0.0 0
M  V30 18 C 5.0921 1.6047 0.0 0
M  V30 19 C 2.5018 4.6877 0.0 0
M  V30 20 O -0.3285 7.7455 0.0 0
M  V30 21 C -1.4025 7.0253 0.0 0 CFG=1
M  V30 22 C -4.0307 7.0758 0.0 0
M  V30 23 C -5.3827 4.1191 0.0 0
M  V30 24 C 6.3809 2.3628 0.0 0
M  V30 25 C 3.7653 3.9549 0.0 0
M  V30 26 C -2.2112 8.352 0.0 0
M  V30 27 C -6.4567 3.0451 0.0 0
M  V30 28 C 6.3683 3.917 0.0 0
M  V30 29 C 5.0542 4.713 0.0 0 CFG=1
M  V30 30 C -7.973 3.4115 0.0 0
M  V30 31 C -6.065 1.6299 0.0 0
M  V30 32 C 5.0415 6.2672 0.0 0
M  V30 33 C -9.047 2.3375 0.0 0
M  V30 34 C -7.139 0.5559 0.0 0
M  V30 35 C -8.6553 0.9223 0.0 0
M  V30 END ATOM
M  V30 BEGIN BOND
M  V30 1 2 1 2
M  V30 2 1 2 3
M  V30 3 1 2 4
M  V30 4 1 5 3 CFG=1
M  V30 5 2 4 6
M  V30 6 1 5 7
M  V30 7 1 5 8
M  V30 8 1 5 9
M  V30 9 1 6 10
M  V30 10 2 7 11
M  V30 11 1 7 12
M  V30 12 1 8 13 CFG=3
M  V30 13 1 8 14
M  V30 14 1 9 15 CFG=3
M  V30 15 1 9 16
M  V30 16 1 10 17 CFG=3
M  V30 17 1 10 18
M  V30 18 2 13 19
M  V30 19 1 14 20 CFG=1
M  V30 20 1 14 21
M  V30 21 1 15 22 CFG=3
M  V30 22 1 16 23 CFG=1
M  V30 23 1 18 24
M  V30 24 1 19 25
M  V30 25 1 21 26
M  V30 26 1 23 27
M  V30 27 1 24 28
M  V30 28 1 25 29
M  V30 29 2 27 30
M  V30 30 1 27 31
M  V30 31 1 29 32 CFG=3
M  V30 32 1 30 33
M  V30 33 2 31 34
M  V30 34 2 33 35
M  V30 35 1 12 16
M  V30 36 1 15 21
M  V30 37 1 21 20 CFG=1
M  V30 38 1 28 29
M  V30 39 1 34 35
M  V30 END BOND
M  V30 BEGIN COLLECTION
M  V30 MDLV30/STEABS ATOMS=(9 5 8 9 10 14 15 16 21 29)
M  V30 END COLLECTION
M  V30 END CTAB
M  END
>  <Compound>
Cytochalasin F

>  <Origin>
Preussia similis

>  <Reference>
Kretz, R., Wendt, L., Wongkanoun, S., Luangsa-ard, J., Surup, F., Helaly, S., … Stradal, T. (2019). The Effect of Cytochalasans on the Actin Cytoskeleton of Eukaryotic Cells and Preliminary Structure–Activity Relationships. Biomolecules, 9(2), 73. doi:10.

>  <Actin Disruption Activity (1h Treatment)>
+

>  <Reversibilty>
+

>  <Box ID>
not available

>  <Quantity>
not available

>  <Cytotoxicity in L929 mouse fibroblasts [µM]>
not tested

>  <Synonyms>
compound 7

>  <Subclass>
Cytochalasin

>  <Molecular Formula>
C29H37NO5

>  <Total Molweight>
479.615

>  <Smiles>
C[C@@H]([C@@H]([C@H](Cc1ccccc1)NC1=O)[C@@]11OC(/C=C2)=O)[C@@]3(C)O[C@H]3[C@@H]1/C=C/C[C@H](C)CCC[C@H]\2O

>  <Amino Acid>
Phenylalanine

>  <Cytotoxicity in L929 mouse Fibroblasts [µg/mL]>
not tested

>  <Cytotoxicity in KB3.1>


>  <Anti-Biofilm>
not tested

$$$$
Compound 52
Actelion Java MolfileCreator 2.0

  0  0  0  0  0  0              0 V3000
M  V30 BEGIN CTAB
M  V30 COUNTS 36 39 0 0 0
M  V30 BEGIN ATOM
M  V30 1 O 0.0 0.0 0.0 0
M  V30 2 C 0.3058 1.5556 0.0 0
M  V30 3 N -1.2232 1.4492 0.0 0
M  V30 4 C 0.5717 3.0581 0.0 0 CFG=1
M  V30 5 C -1.8614 2.8586 0.0 0 CFG=2
M  V30 6 C 0.5318 1.6088 0.0 0 CFG=2
M  V30 7 C 1.8348 3.8292 0.0 0 CFG=1
M  V30 8 C -0.7711 3.8292 0.0 0 CFG=2
M  V30 9 C -3.3639 3.2043 0.0 0
M  V30 10 O 0.6116 -0.0664 0.0 0
M  V30 11 C 1.7949 0.9174 0.0 0
M  V30 12 C 3.098 3.1378 0.0 0
M  V30 13 C 1.7949 5.3583 0.0 0 CFG=2
M  V30 14 C -0.811 5.3583 0.0 0 CFG=1
M  V30 15 C -4.4143 2.1273 0.0 0
M  V30 16 C -0.6648 -0.8376 0.0 0
M  V30 17 C 3.0581 1.6886 0.0 0
M  V30 18 C 4.2281 4.1218 0.0 0
M  V30 19 O 3.0581 6.1295 0.0 0
M  V30 20 C 0.452 6.1295 0.0 0
M  V30 21 C -2.1539 6.1295 0.0 0
M  V30 22 C -5.9167 2.473 0.0 0
M  V30 23 C -4.0021 0.7445 0.0 0
M  V30 24 O -2.0476 -0.1595 0.0 0
M  V30 25 C -0.6116 -2.2869 0.0 0
M  V30 26 C 4.1882 0.7844 0.0 0 CFG=2
M  V30 27 C 5.6508 3.8292 0.0 0
M  V30 28 C 0.4121 7.6585 0.0 0
M  V30 29 C -6.9671 1.396 0.0 0
M  V30 30 C -5.0525 -0.3324 0.0 0
M  V30 31 O 3.816 -0.6382 0.0 0
M  V30 32 C 5.6109 1.1567 0.0 0
M  V30 33 C 5.212 -0.2393 0.0 0
M  V30 34 C 6.2491 2.5262 0.0 0 CFG=1
M  V30 35 C -6.555 0.0132 0.0 0
M  V30 36 C 7.6984 2.5661 0.0 0
M  V30 END ATOM
M  V30 BEGIN BOND
M  V30 1 2 1 2
M  V30 2 1 2 3
M  V30 3 1 4 2 CFG=3
M  V30 4 1 3 5
M  V30 5 1 4 6
M  V30 6 1 4 7
M  V30 7 1 4 8
M  V30 8 1 5 9 CFG=1
M  V30 9 1 6 10 CFG=1
M  V30 10 1 6 11
M  V30 11 1 7 12 CFG=3
M  V30 12 1 7 13
M  V30 13 1 8 14 CFG=3
M  V30 14 1 9 15
M  V30 15 1 10 16
M  V30 16 2 11 17
M  V30 17 2 12 18
M  V30 18 1 13 19 CFG=1
M  V30 19 1 13 20
M  V30 20 1 14 21 CFG=3
M  V30 21 2 15 22
M  V30 22 1 15 23
M  V30 23 2 16 24
M  V30 24 1 16 25
M  V30 25 1 17 26
M  V30 26 1 18 27
M  V30 27 2 20 28
M  V30 28 1 22 29
M  V30 29 2 23 30
M  V30 30 1 26 31 CFG=1
M  V30 31 1 26 32
M  V30 32 1 26 33
M  V30 33 1 27 34
M  V30 34 2 29 35
M  V30 35 1 34 36 CFG=3
M  V30 36 1 5 8
M  V30 37 1 14 20
M  V30 38 1 30 35
M  V30 39 1 32 34
M  V30 END BOND
M  V30 BEGIN COLLECTION
M  V30 MDLV30/STEABS ATOMS=(9 4 5 6 7 8 13 14 26 34)
M  V30 END COLLECTION
M  V30 END CTAB
M  END
>  <Compound>
Cytochalasin H

>  <Origin>
Hypoxylon fragiforme
Diaporthe cf. ueckeri
Magnaporte grisea

>  <Reference>
Yuyama, K.T.; Wendt, L.; Surup, F.; Kretz, R.; Chepkirui, C.; Wittstein, K.; Boonlarppradab, C.; Wongkanoun, S.; Luangsa-ard, J.J.; Stadler, M.; et al. Cytochalasans act as inhibitors of biofilm formation of Staphylococcus aureus. Biomolecules 2015, 8, 4
Wang, C., Hantke, V., Cox, R. J., & Skellam, E. (2019). Targeted Gene Inactivations Expose Silent Cytochalasans in Magnaporthe grisea NI980. Organic Letters. doi:10.1021/acs.orglett.9b01344
Kemkuignou BM, Lambert C, Schmidt K, Schweizer L, Anoumedem EGM, Kouam SF, Stadler M, Stradal T, Marin-Felix Y. Unreported cytochalasins from an acid-mediated transformation of cytochalasin J isolated from Diaporthe cf. ueckeri. Fitoterapia. 2023 Jan 18:105434. doi: 10.1016/j.fitote.2023.105434. Epub ahead of print. PMID: 36681097

>  <Actin Disruption Activity (1h Treatment)>
++

>  <Reversibilty>
+

>  <Box ID>
1C0013

>  <Quantity>
0.94 mg
1.16 mg

>  <Cytotoxicity in L929 mouse fibroblasts [µM]>
0.2

>  <Synonyms>
compound 6
compound 1
WC040

>  <Subclass>
Cytochalasin

>  <Molecular Formula>
C30H39NO5

>  <Total Molweight>
493.642

>  <Smiles>
C[C@@H]([C@@H]([C@H](Cc1ccccc1)N1)[C@@]([C@H]([C@@H]2O)/C=C/C[C@H](C)C[C@](C)(/C=C3)O)([C@@H]\3OC(C)=O)C1=O)C2=C

>  <Amino Acid>
Phenylalanine

>  <Cytotoxicity in L929 mouse Fibroblasts [µg/mL]>
0.1

>  <Cytotoxicity in KB3.1>


>  <Anti-Biofilm>
-

$$$$
Compound 53
Actelion Java MolfileCreator 2.0

  0  0  0  0  0  0              0 V3000
M  V30 BEGIN CTAB
M  V30 COUNTS 65 72 0 0 0
M  V30 BEGIN ATOM
M  V30 1 S 0.0 0.0 0.0 0
M  V30 2 C 1.0623 1.028 0.0 0
M  V30 3 C 0.5654 -1.3365 0.0 0 CFG=1
M  V30 4 C 2.3303 0.3255 0.0 0
M  V30 5 C 0.8738 2.5531 0.0 0
M  V30 6 C -0.3769 1.5935 0.0 0
M  V30 7 N 2.0219 -1.148 0.0 0
M  V30 8 C 0.6853 -2.7929 0.0 0 CFG=1
M  V30 9 C 3.6668 0.9595 0.0 0
M  V30 10 C 2.1418 -2.6045 0.0 0
M  V30 11 N -0.2741 -3.9239 0.0 0
M  V30 12 O 3.7868 2.4845 0.0 0
M  V30 13 O 4.8491 0.1199 0.0 0
M  V30 14 O 3.2727 -3.4955 0.0 0
M  V30 15 C -0.7368 -6.0829 0.0 0
M  V30 16 C 6.1857 0.7539 0.0 0
M  V30 17 O 0.3598 -7.0253 0.0 0
M  V30 18 C -2.1932 -6.5284 0.0 0
M  V30 19 C 6.3056 2.2789 0.0 0
M  V30 20 C -3.3584 -5.5174 0.0 0
M  V30 21 N 5.1576 3.307 0.0 0
M  V30 22 C 7.5736 3.05 0.0 0
M  V30 23 C -4.8149 -5.9629 0.0 0
M  V30 24 C -3.1014 -4.0095 0.0 0
M  V30 25 N 5.723 4.7121 0.0 0
M  V30 26 N 7.2309 4.5578 0.0 0
M  V30 27 C -5.98 -4.9519 0.0 0
M  V30 28 C -4.2666 -2.9986 0.0 0
M  V30 29 C 8.1905 5.7059 0.0 0
M  V30 30 C -5.723 -3.4441 0.0 0
M  V30 31 C 7.6935 7.1624 0.0 0
M  V30 32 C 9.6298 5.4317 0.0 0
M  V30 33 C 8.6531 8.3104 0.0 0
M  V30 34 C 10.5893 6.5798 0.0 0
M  V30 35 C 10.0924 8.0362 0.0 0
M  V30 36 C 11.052 9.1843 0.0 0
M  V30 37 C 12.4913 8.9101 0.0 0 CFG=2
M  V30 38 N 13.0568 7.5736 0.0 0
M  V30 39 C 13.5708 9.9382 0.0 0 CFG=1
M  V30 40 C 14.5132 7.7621 0.0 0
M  V30 41 C 14.8388 9.2357 0.0 0 CFG=2
M  V30 42 C 13.5366 11.4804 0.0 0 CFG=1
M  V30 43 O 14.359 6.5798 0.0 0
M  V30 44 C 14.8045 7.7621 0.0 0 CFG=2
M  V30 45 C 16.1068 10.0068 0.0 0 CFG=1
M  V30 46 C 14.8045 12.2514 0.0 0
M  V30 47 C 12.2 12.2514 0.0 0
M  V30 48 O 15.2329 6.3741 0.0 0
M  V30 49 C 16.0725 7.0595 0.0 0
M  V30 50 C 17.3748 9.3042 0.0 0
M  V30 51 C 16.0725 11.5489 0.0 0 CFG=1
M  V30 52 C 14.7703 13.7936 0.0 0
M  V30 53 C 14.2048 5.2775 0.0 0
M  V30 54 C 17.3405 7.8306 0.0 0
M  V30 55 C 18.5228 10.2638 0.0 0
M  V30 56 O 17.3405 12.32 0.0 0
M  V30 57 O 12.6969 5.6031 0.0 0
M  V30 58 C 14.6332 3.8896 0.0 0
M  V30 59 C 18.4886 6.9396 0.0 0 CFG=2
M  V30 60 C 19.945 9.9725 0.0 0
M  V30 61 O 19.2082 5.5517 0.0 0
M  V30 62 C 19.9108 7.2994 0.0 0
M  V30 63 C 17.2891 6.0314 0.0 0
M  V30 64 C 20.5619 8.6531 0.0 0 CFG=1
M  V30 65 C 22.0355 8.6874 0.0 0
M  V30 END ATOM
M  V30 BEGIN BOND
M  V30 1 1 1 2
M  V30 2 1 3 1 CFG=1
M  V30 3 1 2 4
M  V30 4 1 2 5
M  V30 5 1 2 6
M  V30 6 1 3 7
M  V30 7 1 3 8
M  V30 8 1 4 9
M  V30 9 1 7 10
M  V30 10 1 8 11 CFG=1
M  V30 11 2 9 12
M  V30 12 1 9 13
M  V30 13 2 10 14
M  V30 14 1 11 15
M  V30 15 1 13 16
M  V30 16 2 15 17
M  V30 17 1 15 18
M  V30 18 1 16 19
M  V30 19 1 18 20
M  V30 20 1 19 21
M  V30 21 2 19 22
M  V30 22 2 20 23
M  V30 23 1 20 24
M  V30 24 2 21 25
M  V30 25 1 22 26
M  V30 26 1 23 27
M  V30 27 2 24 28
M  V30 28 1 26 29
M  V30 29 2 27 30
M  V30 30 2 29 31
M  V30 31 1 29 32
M  V30 32 1 31 33
M  V30 33 2 32 34
M  V30 34 2 33 35
M  V30 35 1 35 36
M  V30 36 1 37 36 CFG=1
M  V30 37 1 37 38
M  V30 38 1 37 39
M  V30 39 1 38 40
M  V30 40 1 39 41
M  V30 41 1 39 42 CFG=3
M  V30 42 2 40 43
M  V30 43 1 41 44
M  V30 44 1 41 45
M  V30 45 1 42 46
M  V30 46 1 42 47 CFG=3
M  V30 47 1 44 48 CFG=1
M  V30 48 1 44 49
M  V30 49 1 45 50 CFG=3
M  V30 50 1 45 51
M  V30 51 2 46 52
M  V30 52 1 48 53
M  V30 53 2 49 54
M  V30 54 2 50 55
M  V30 55 1 51 56 CFG=1
M  V30 56 2 53 57
M  V30 57 1 53 58
M  V30 58 1 54 59
M  V30 59 1 55 60
M  V30 60 1 59 61 CFG=1
M  V30 61 1 59 62
M  V30 62 1 59 63
M  V30 63 1 60 64
M  V30 64 1 64 65 CFG=3
M  V30 65 1 4 7
M  V30 66 1 8 10
M  V30 67 1 25 26
M  V30 68 1 28 30
M  V30 69 1 34 35
M  V30 70 1 41 40 CFG=3
M  V30 71 1 46 51
M  V30 72 1 62 64
M  V30 END BOND
M  V30 BEGIN COLLECTION
M  V30 MDLV30/STEABS ATOMS=(11 3 8 37 39 41 42 44 45 51 59 64)
M  V30 END COLLECTION
M  V30 END CTAB
M  END
>  <Compound>
Cytochalasin H penicillin G adduct

>  <Origin>
Magnaporte grisea
semi-synthetic
mutasynthesis

>  <Reference>
Wang C, Lambert C, Hauser M, Deuschmann A, Zeilinger C, Rottner K, Stradal TEB, Stadler M, Skellam EJ, Cox RJ. Diversely Functionalised Cytochalasins through Mutasynthesis and Semi-Synthesis. Chemistry. 2020 Oct 27;26(60):13578-13583. doi: 10.1002/chem.202002241.

>  <Actin Disruption Activity (1h Treatment)>
++

>  <Reversibilty>
not tested

>  <Box ID>
2C0063

>  <Quantity>
2.54 mg

>  <Cytotoxicity in L929 mouse fibroblasts [µM]>
25.375

>  <Synonyms>
WC096
compound 11

>  <Subclass>
Cytochalasin

>  <Molecular Formula>
C50H60N6O8S

>  <Total Molweight>
905.126

>  <Smiles>
C[C@@H]([C@@H]([C@H](Cc(cc1)ccc1-[n]1nnc(COC(C(C(C)(C)S[C@@H]2[C@@H]3NC(Cc4ccccc4)=O)N2C3=O)=O)c1)N1)[C@@]([C@H]([C@@H]2C)/C=C/C[C@H](C)C[C@](C)(/C=C3)O)([C@@H]\3OC(C)=O)C1=O)C2=C

>  <Amino Acid>
Tyrosine derivative

>  <Cytotoxicity in L929 mouse Fibroblasts [µg/mL]>
23

>  <Cytotoxicity in KB3.1>


>  <Anti-Biofilm>
not tested

$$$$
Compound 54
Actelion Java MolfileCreator 2.0

  0  0  0  0  0  0              0 V3000
M  V30 BEGIN CTAB
M  V30 COUNTS 33 36 0 0 0
M  V30 BEGIN ATOM
M  V30 1 O 0.0 0.0 0.0 0
M  V30 2 C 0.3217 1.5416 0.0 0
M  V30 3 N -1.1931 1.421 0.0 0
M  V30 4 C 0.6032 3.0297 0.0 0 CFG=1
M  V30 5 C -1.8232 2.8152 0.0 0 CFG=2
M  V30 6 C 0.5764 1.5684 0.0 0 CFG=2
M  V30 7 C 1.8768 3.7938 0.0 0 CFG=1
M  V30 8 C -0.7239 3.7938 0.0 0 CFG=2
M  V30 9 C -3.3112 3.1504 0.0 0
M  V30 10 O 0.6702 -0.1206 0.0 0
M  V30 11 C 1.85 0.8579 0.0 0
M  V30 12 C 3.1504 3.0833 0.0 0
M  V30 13 C 1.85 5.3087 0.0 0 CFG=2
M  V30 14 C -0.7507 5.3087 0.0 0 CFG=1
M  V30 15 C -4.3435 2.0645 0.0 0
M  V30 16 C 3.1235 1.6221 0.0 0
M  V30 17 C 4.2899 4.0486 0.0 0
M  V30 18 O 3.1235 6.0729 0.0 0
M  V30 19 C 0.5228 6.0729 0.0 0
M  V30 20 C -2.0779 6.0729 0.0 0
M  V30 21 C -5.8316 2.3996 0.0 0
M  V30 22 C -3.9145 0.6702 0.0 0
M  V30 23 C 4.2631 0.7105 0.0 0 CFG=2
M  V30 24 C 5.7243 3.7402 0.0 0
M  V30 25 C 0.496 7.5877 0.0 0
M  V30 26 C -6.8638 1.3137 0.0 0
M  V30 27 C -4.9468 -0.4155 0.0 0
M  V30 28 O 3.9011 -0.7239 0.0 0
M  V30 29 C 5.6975 1.0724 0.0 0
M  V30 30 C 5.2953 -0.3217 0.0 0
M  V30 31 C 6.341 2.4264 0.0 0 CFG=1
M  V30 32 C -6.4348 -0.0804 0.0 0
M  V30 33 C 7.8022 2.4532 0.0 0
M  V30 END ATOM
M  V30 BEGIN BOND
M  V30 1 2 1 2
M  V30 2 1 2 3
M  V30 3 1 4 2 CFG=3
M  V30 4 1 3 5
M  V30 5 1 4 6
M  V30 6 1 4 7
M  V30 7 1 4 8
M  V30 8 1 5 9 CFG=1
M  V30 9 1 6 10 CFG=1
M  V30 10 1 6 11
M  V30 11 1 7 12 CFG=3
M  V30 12 1 7 13
M  V30 13 1 8 14 CFG=3
M  V30 14 1 9 15
M  V30 15 2 11 16
M  V30 16 2 12 17
M  V30 17 1 13 18 CFG=1
M  V30 18 1 13 19
M  V30 19 1 14 20 CFG=3
M  V30 20 2 15 21
M  V30 21 1 15 22
M  V30 22 1 16 23
M  V30 23 1 17 24
M  V30 24 2 19 25
M  V30 25 1 21 26
M  V30 26 2 22 27
M  V30 27 1 23 28 CFG=1
M  V30 28 1 23 29
M  V30 29 1 23 30
M  V30 30 1 24 31
M  V30 31 2 26 32
M  V30 32 1 31 33 CFG=3
M  V30 33 1 5 8
M  V30 34 1 14 19
M  V30 35 1 27 32
M  V30 36 1 29 31
M  V30 END BOND
M  V30 BEGIN COLLECTION
M  V30 MDLV30/STEABS ATOMS=(9 4 5 6 7 8 13 14 23 31)
M  V30 END COLLECTION
M  V30 END CTAB
M  END
>  <Compound>
Cytochalasin J

>  <Origin>
Diaporte ueckeri

>  <Reference>
Kemkuignou BM, Lambert C, Schmidt K, Schweizer L, Anoumedem EGM, Kouam SF, Stadler M, Stradal T, Marin-Felix Y. Unreported cytochalasins from an acid-mediated transformation of cytochalasin J isolated from Diaporthe cf. ueckeri. Fitoterapia. 2023 Apr;166:105434. doi: 10.1016/j.fitote.2023.105434. Epub 2023 Jan 19. PMID: 36681097.

>  <Actin Disruption Activity (1h Treatment)>
++

>  <Reversibilty>
+

>  <Box ID>
2C0093

>  <Quantity>
1.1 mg

>  <Cytotoxicity in L929 mouse fibroblasts [µM]>
1.5

>  <Synonyms>
compound 2

>  <Subclass>
Cytochalasin

>  <Molecular Formula>
C28H37NO4

>  <Total Molweight>
451.605

>  <Smiles>
C[C@@H]([C@@H]([C@H](Cc1ccccc1)N1)[C@@]([C@H]([C@@H]2O)/C=C/C[C@H](C)C[C@](C)(/C=C3)O)([C@@H]\3O)C1=O)C2=C

>  <Amino Acid>
Phenylalanine

>  <Cytotoxicity in L929 mouse Fibroblasts [µg/mL]>
0.69 

>  <Cytotoxicity in KB3.1>


>  <Anti-Biofilm>
not tested

$$$$
Compound 55
Actelion Java MolfileCreator 2.0

  0  0  0  0  0  0              0 V3000
M  V30 BEGIN CTAB
M  V30 COUNTS 34 38 0 0 0
M  V30 BEGIN ATOM
M  V30 1 O 0.0 0.0 0.0 0
M  V30 2 C 0.1338 1.2291 0.0 0
M  V30 3 N -1.3874 1.0953 0.0 0
M  V30 4 C 0.4259 2.7261 0.0 0 CFG=1
M  V30 5 C -2.0324 2.4948 0.0 0 CFG=2
M  V30 6 C 0.718 1.2778 0.0 0 CFG=2
M  V30 7 C 1.7038 3.505 0.0 0 CFG=2
M  V30 8 C -0.9005 3.505 0.0 0 CFG=2
M  V30 9 C -3.5293 2.8356 0.0 0
M  V30 10 O 0.8032 -0.0608 0.0 0
M  V30 11 C 2.1906 1.1439 0.0 0 CFG=2
M  V30 12 C 1.6794 5.0384 0.0 0 CFG=2
M  V30 13 C 2.7991 2.5314 0.0 0
M  V30 14 C -0.9249 5.0384 0.0 0 CFG=1
M  V30 15 C -4.5516 1.7403 0.0 0
M  V30 16 C 2.7869 -0.2312 0.0 0
M  V30 17 O 2.9573 5.8173 0.0 0
M  V30 18 C 0.3529 5.8173 0.0 0
M  V30 19 C 4.15 3.1764 0.0 0 CFG=2
M  V30 20 C -2.2514 5.8173 0.0 0
M  V30 21 C -6.0485 2.0811 0.0 0
M  V30 22 C -4.1013 0.3285 0.0 0
M  V30 23 C 4.1378 -0.8275 0.0 0
M  V30 24 C 0.3285 7.3508 0.0 0
M  V30 25 O 4.1135 4.7342 0.0 0
M  V30 26 C 5.5252 2.58 0.0 0
M  V30 27 C -7.0708 0.9857 0.0 0
M  V30 28 C -5.1236 -0.7667 0.0 0
M  V30 29 C 5.5131 -0.1825 0.0 0
M  V30 30 C 4.1013 -2.3366 0.0 0
M  V30 31 C 5.4157 5.5252 0.0 0
M  V30 32 C 6.1216 1.2291 0.0 0 CFG=1
M  V30 33 C -6.6205 -0.4259 0.0 0
M  V30 34 C 7.6307 1.2657 0.0 0
M  V30 END ATOM
M  V30 BEGIN BOND
M  V30 1 2 1 2
M  V30 2 1 2 3
M  V30 3 1 4 2 CFG=3
M  V30 4 1 3 5
M  V30 5 1 4 6
M  V30 6 1 4 7
M  V30 7 1 4 8
M  V30 8 1 5 9 CFG=1
M  V30 9 1 6 10 CFG=1
M  V30 10 1 6 11
M  V30 11 1 7 12
M  V30 12 1 7 13 CFG=3
M  V30 13 1 8 14 CFG=3
M  V30 14 1 9 15
M  V30 15 1 11 16 CFG=3
M  V30 16 1 12 17 CFG=1
M  V30 17 1 12 18
M  V30 18 1 13 19
M  V30 19 1 14 20 CFG=3
M  V30 20 2 15 21
M  V30 21 1 15 22
M  V30 22 2 16 23
M  V30 23 2 18 24
M  V30 24 1 19 25 CFG=3
M  V30 25 1 19 26
M  V30 26 1 21 27
M  V30 27 2 22 28
M  V30 28 1 23 29
M  V30 29 1 23 30
M  V30 30 1 25 31
M  V30 31 1 26 32
M  V30 32 2 27 33
M  V30 33 1 32 34 CFG=3
M  V30 34 1 5 8
M  V30 35 1 11 13
M  V30 36 1 14 18
M  V30 37 1 28 33
M  V30 38 1 29 32
M  V30 END BOND
M  V30 BEGIN COLLECTION
M  V30 MDLV30/STEABS ATOMS=(10 4 5 6 7 8 11 12 14 19 32)
M  V30 END COLLECTION
M  V30 END CTAB
M  END
>  <Compound>
Cytochalasin J4

>  <Origin>
Diaporte ueckeri;
semi synthetic

>  <Reference>
Kemkuignou BM, Lambert C, Schmidt K, Schweizer L, Anoumedem EGM, Kouam SF, Stadler M, Stradal T, Marin-Felix Y. Unreported cytochalasins from an acid-mediated transformation of cytochalasin J isolated from Diaporthe cf. ueckeri. Fitoterapia. 2023 Apr;166:105434. doi: 10.1016/j.fitote.2023.105434. Epub 2023 Jan 19. PMID: 36681097.

>  <Actin Disruption Activity (1h Treatment)>
-

>  <Reversibilty>
+

>  <Box ID>
2C0087

>  <Quantity>
0.69 mg

>  <Cytotoxicity in L929 mouse fibroblasts [µM]>
no inhibition

>  <Synonyms>
compound 8

>  <Subclass>
Cytochalasin

>  <Molecular Formula>
C29H39NO4

>  <Total Molweight>
465.632

>  <Smiles>
C[C@@H]([C@@H]([C@H](Cc1ccccc1)N1)[C@@]([C@@H](C([C@@H]2/C=C(/C)\C[C@@H](C)C3)[C@@H]3OC)[C@@H]3O)([C@@H]2O)C1=O)C3=C

>  <Amino Acid>
Phenylalanine

>  <Cytotoxicity in L929 mouse Fibroblasts [µg/mL]>
no inhibition

>  <Cytotoxicity in KB3.1>


>  <Anti-Biofilm>
not tested

$$$$
Compound 56
Actelion Java MolfileCreator 2.0

  0  0  0  0  0  0              0 V3000
M  V30 BEGIN CTAB
M  V30 COUNTS 33 38 0 0 0
M  V30 BEGIN ATOM
M  V30 1 O 0.0 0.0 0.0 0
M  V30 2 C 0.4924 1.2897 0.0 0
M  V30 3 N -0.9965 1.149 0.0 0
M  V30 4 C 0.7855 2.7553 0.0 0 CFG=2
M  V30 5 C -1.618 2.5208 0.0 0 CFG=2
M  V30 6 C 0.7738 1.2779 0.0 0 CFG=2
M  V30 7 C -0.5158 3.5056 0.0 0 CFG=2
M  V30 8 C 2.0635 3.5056 0.0 0 CFG=2
M  V30 9 C -3.0835 2.8373 0.0 0
M  V30 10 O 0.7621 -0.0703 0.0 0
M  V30 11 C 2.0518 0.551 0.0 0
M  V30 12 C -0.5276 5.0064 0.0 0 CFG=1
M  V30 13 C 2.0518 5.0064 0.0 0 CFG=1
M  V30 14 C 3.3415 2.7787 0.0 0 CFG=2
M  V30 15 C -4.0919 1.7469 0.0 0
M  V30 16 C 3.3298 1.3014 0.0 0 CFG=2
M  V30 17 C 0.7503 5.7568 0.0 0
M  V30 18 C -1.829 5.7568 0.0 0
M  V30 19 O 3.3298 5.7568 0.0 0
M  V30 20 C 4.4905 3.7167 0.0 0 CFG=2
M  V30 21 C -5.5575 2.0635 0.0 0
M  V30 22 C -3.6463 0.34 0.0 0
M  V30 23 C 4.4788 0.3869 0.0 0 CFG=2
M  V30 24 C 0.7386 7.2575 0.0 0
M  V30 25 C 5.9326 3.4001 0.0 0
M  V30 26 C -6.5658 0.9731 0.0 0
M  V30 27 C -4.6547 -0.7503 0.0 0
M  V30 28 O 5.3816 -0.6565 0.0 0
M  V30 29 C 5.9209 0.7269 0.0 0
M  V30 30 C 4.1388 -1.0552 0.0 0
M  V30 31 C 6.5658 2.0752 0.0 0 CFG=1
M  V30 32 C -6.1202 -0.4338 0.0 0
M  V30 33 C 8.0431 2.0869 0.0 0
M  V30 END ATOM
M  V30 BEGIN BOND
M  V30 1 2 1 2
M  V30 2 1 2 3
M  V30 3 1 4 2 CFG=3
M  V30 4 1 3 5
M  V30 5 1 4 6
M  V30 6 1 4 7
M  V30 7 1 8 4 CFG=3
M  V30 8 1 5 9 CFG=1
M  V30 9 1 6 10 CFG=1
M  V30 10 1 6 11
M  V30 11 1 7 12 CFG=3
M  V30 12 1 8 13
M  V30 13 1 8 14
M  V30 14 1 9 15
M  V30 15 1 16 11 CFG=3
M  V30 16 1 12 17
M  V30 17 1 12 18 CFG=3
M  V30 18 1 13 19 CFG=1
M  V30 19 1 14 20
M  V30 20 2 15 21
M  V30 21 1 15 22
M  V30 22 1 16 23
M  V30 23 2 17 24
M  V30 24 1 20 25
M  V30 25 1 21 26
M  V30 26 2 22 27
M  V30 27 1 23 28 CFG=1
M  V30 28 1 23 29
M  V30 29 1 23 30
M  V30 30 1 25 31
M  V30 31 2 26 32
M  V30 32 1 31 33 CFG=3
M  V30 33 1 5 7
M  V30 34 1 13 17
M  V30 35 1 14 16 CFG=1
M  V30 36 1 20 19 CFG=3
M  V30 37 1 27 32
M  V30 38 1 29 31
M  V30 END BOND
M  V30 BEGIN COLLECTION
M  V30 MDLV30/STEABS ATOMS=(12 4 5 6 7 8 12 13 14 16 20 23 31)
M  V30 END COLLECTION
M  V30 END CTAB
M  END
>  <Compound>
Cytochalasin J5

>  <Origin>
Diaporte ueckeri;
semi-synthetic

>  <Reference>
Kemkuignou BM, Lambert C, Schmidt K, Schweizer L, Anoumedem EGM, Kouam SF, Stadler M, Stradal T, Marin-Felix Y. Unreported cytochalasins from an acid-mediated transformation of cytochalasin J isolated from Diaporthe cf. ueckeri. Fitoterapia. 2023 Apr;166:105434. doi: 10.1016/j.fitote.2023.105434. Epub 2023 Jan 19. PMID: 36681097.

>  <Actin Disruption Activity (1h Treatment)>
-

>  <Reversibilty>
+

>  <Box ID>
2C0088

>  <Quantity>
0.25 mg

>  <Cytotoxicity in L929 mouse fibroblasts [µM]>
no inhibition

>  <Synonyms>
compound 9

>  <Subclass>
Cytochalasin

>  <Molecular Formula>
C28H37NO4

>  <Total Molweight>
451.605

>  <Smiles>
C[C@@H]([C@@H]([C@H](Cc1ccccc1)N1)[C@@]([C@@H]2[C@@H]3O[C@H](C[C@H](C)C4)[C@H]2[C@@H](C2)[C@]4(C)O)([C@@H]2O)C1=O)C3=C

>  <Amino Acid>
Phenylalanine

>  <Cytotoxicity in L929 mouse Fibroblasts [µg/mL]>
no inhibition

>  <Cytotoxicity in KB3.1>


>  <Anti-Biofilm>
not tested

$$$$
Compound 57
Actelion Java MolfileCreator 2.0

  0  0  0  0  0  0              0 V3000
M  V30 BEGIN CTAB
M  V30 COUNTS 36 39 0 0 0
M  V30 BEGIN ATOM
M  V30 1 O 0.0 0.0 0.0 0
M  V30 2 C -0.0256 1.5266 0.0 0
M  V30 3 O 1.2443 2.2963 0.0 0
M  V30 4 O -1.347 2.2963 0.0 0
M  V30 5 C 2.5144 1.5779 0.0 0
M  V30 6 C -1.3726 3.8101 0.0 0 CFG=2
M  V30 7 C 3.7844 2.3476 0.0 0
M  V30 8 C -1.719 2.3733 0.0 0
M  V30 9 C -0.1026 4.567 0.0 0 CFG=1
M  V30 10 C -2.694 4.5798 0.0 0 CFG=1
M  V30 11 C 5.1828 1.9114 0.0 0 CFG=1
M  V30 12 O -2.1808 0.9493 0.0 0
M  V30 13 N -3.2328 2.2578 0.0 0
M  V30 14 C 1.1674 3.8614 0.0 0
M  V30 15 C -0.1154 6.0808 0.0 0 CFG=2
M  V30 16 C -2.7068 6.0936 0.0 0
M  V30 17 C -3.8357 3.6048 0.0 0 CFG=1
M  V30 18 O 6.7992 1.6933 0.0 0
M  V30 19 C 6.0423 3.143 0.0 0
M  V30 20 C 4.8236 0.4874 0.0 0
M  V30 21 C 2.4374 4.6311 0.0 0
M  V30 22 O 1.1545 6.8377 0.0 0
M  V30 23 C -1.4368 6.8505 0.0 0
M  V30 24 C -4.0282 6.8633 0.0 0
M  V30 25 C -5.3239 3.9512 0.0 0
M  V30 26 O 7.5048 3.1687 0.0 0
M  V30 27 C 5.1315 4.3746 0.0 0 CFG=2
M  V30 28 C 3.7075 3.9127 0.0 0
M  V30 29 C -1.4496 8.3643 0.0 0
M  V30 30 C -6.363 2.8736 0.0 0
M  V30 31 C 5.5676 5.8242 0.0 0
M  V30 32 C -7.8512 3.22 0.0 0
M  V30 33 C -5.9397 1.4753 0.0 0
M  V30 34 C -8.8903 2.1424 0.0 0
M  V30 35 C -6.9788 0.3976 0.0 0
M  V30 36 C -8.4669 0.744 0.0 0
M  V30 END ATOM
M  V30 BEGIN BOND
M  V30 1 2 1 2
M  V30 2 1 2 3
M  V30 3 1 2 4
M  V30 4 1 3 5
M  V30 5 1 6 4 CFG=1
M  V30 6 2 5 7
M  V30 7 1 6 8
M  V30 8 1 6 9
M  V30 9 1 6 10
M  V30 10 1 7 11
M  V30 11 2 8 12
M  V30 12 1 8 13
M  V30 13 1 9 14 CFG=3
M  V30 14 1 9 15
M  V30 15 1 10 16 CFG=3
M  V30 16 1 10 17
M  V30 17 1 11 18 CFG=3
M  V30 18 1 11 19
M  V30 19 1 11 20
M  V30 20 2 14 21
M  V30 21 1 15 22 CFG=1
M  V30 22 1 15 23
M  V30 23 1 16 24
M  V30 24 1 17 25 CFG=1
M  V30 25 2 19 26
M  V30 26 1 19 27
M  V30 27 1 21 28
M  V30 28 1 23 29
M  V30 29 1 25 30
M  V30 30 1 27 31 CFG=3
M  V30 31 2 30 32
M  V30 32 1 30 33
M  V30 33 1 32 34
M  V30 34 2 33 35
M  V30 35 2 34 36
M  V30 36 1 13 17
M  V30 37 2 16 23
M  V30 38 1 27 28
M  V30 39 1 35 36
M  V30 END BOND
M  V30 BEGIN COLLECTION
M  V30 MDLV30/STEABS ATOMS=(7 6 9 10 11 15 17 27)
M  V30 END COLLECTION
M  V30 END CTAB
M  END
>  <Compound>
Cytochalasin K Steyn

>  <Origin>
Dematophora necatrix
Nemania diffusa

>  <Reference>
Pourmoghaddam, M.J., Ekiz, G., Lambert, C. et al. Studies on the secondary metabolism of Rosellinia and Dematophora strains (Xylariaceae) from Iran. Mycol Progress 21, 65 (2022). https://doi.org/10.1007/s11557-022-01816-x
Demir, Ö.; Schmidt, K.; Schulz, B.; Stradal, T.E.B.; Surup, F. Cytochalasins from the Ash Endophytic Fungus Nemania diffusa DSM 116299. Molecules 2025, 30, 957. https://doi.org/10.3390/molecules30040957

>  <Actin Disruption Activity (1h Treatment)>
++

>  <Reversibilty>
+/-

>  <Box ID>
3C0117

>  <Quantity>
available

>  <Cytotoxicity in L929 mouse fibroblasts [µM]>
14.5

>  <Synonyms>
compound 8
compound 7

>  <Subclass>
Cytochalasin

>  <Molecular Formula>
C28H33NO7

>  <Total Molweight>
495.57

>  <Smiles>
C[C@@H](C/C=C/[C@@H]([C@@H](C(C)=C(C)[C@H]1C(Cc2ccccc2)NC2=O)O)[C@@]12OC(O/C=C/[C@@]1(C)O)=O)C1=O

>  <Amino Acid>
Phenylalanine

>  <Cytotoxicity in L929 mouse Fibroblasts [µg/mL]>
7.2 

>  <Cytotoxicity in KB3.1>


>  <Anti-Biofilm>
not tested

$$$$
Compound 58
Actelion Java MolfileCreator 2.0

  0  0  0  0  0  0              0 V3000
M  V30 BEGIN CTAB
M  V30 COUNTS 39 43 0 0 0
M  V30 BEGIN ATOM
M  V30 1 O 0.0 0.0 0.0 0
M  V30 2 C -1.0044 1.1458 0.0 0
M  V30 3 C -2.6878 0.8063 0.0 0 CFG=2
M  V30 4 C -0.4668 2.702 0.0 0 CFG=2
M  V30 5 O -1.3863 -0.8063 0.0 0
M  V30 6 C -3.9893 1.5561 0.0 0 CFG=2
M  V30 7 C -2.7303 -0.6083 0.0 0
M  V30 8 C -1.5702 3.7771 0.0 0
M  V30 9 C 1.1741 2.7586 0.0 0
M  V30 10 O -4.0318 0.2404 0.0 0
M  V30 11 C -5.2908 0.8912 0.0 0 CFG=1
M  V30 12 C -2.801 3.8054 0.0 0
M  V30 13 C -6.267 1.3439 0.0 0 CFG=1
M  V30 14 C -4.1025 3.1405 0.0 0
M  V30 15 O -6.3094 -0.297 0.0 0
M  V30 16 C -6.6348 3.1547 0.0 0 CFG=1
M  V30 17 C -5.404 3.8903 0.0 0 CFG=2
M  V30 18 C -5.3757 -1.2307 0.0 0
M  V30 19 C -7.3987 1.3722 0.0 0
M  V30 20 C -7.9363 3.9045 0.0 0
M  V30 21 C -5.4464 5.3899 0.0 0 CFG=2
M  V30 22 O -4.0601 -1.0185 0.0 0
M  V30 23 C -6.0831 -2.3766 0.0 0
M  V30 24 O -7.4411 -0.2263 0.0 0
M  V30 25 N -9.0539 1.7824 0.0 0
M  V30 26 C -7.9787 5.404 0.0 0 CFG=1
M  V30 27 C -9.2378 3.2396 0.0 0 CFG=1
M  V30 28 O -4.2298 6.1396 0.0 0
M  V30 29 C -6.7479 6.1396 0.0 0 CFG=1
M  V30 30 C -9.2802 6.1538 0.0 0
M  V30 31 C -10.5393 3.9893 0.0 0
M  V30 32 O -5.6021 6.847 0.0 0
M  V30 33 C -7.7665 7.1582 0.0 0
M  V30 34 C -11.8408 3.3244 0.0 0
M  V30 35 C -13.1423 4.0742 0.0 0
M  V30 36 C -11.8832 1.9098 0.0 0
M  V30 37 C -14.4438 3.4093 0.0 0
M  V30 38 C -13.1847 1.2449 0.0 0
M  V30 39 C -14.4862 1.9946 0.0 0
M  V30 END ATOM
M  V30 BEGIN BOND
M  V30 1 2 1 2
M  V30 2 1 2 3
M  V30 3 1 2 4
M  V30 4 1 3 5 CFG=3
M  V30 5 1 3 6
M  V30 6 1 3 7
M  V30 7 1 4 8
M  V30 8 1 4 9 CFG=3
M  V30 9 1 6 10 CFG=1
M  V30 10 1 6 11
M  V30 11 1 8 12
M  V30 12 1 11 13
M  V30 13 2 12 14
M  V30 14 1 13 15 CFG=1
M  V30 15 1 13 16
M  V30 16 1 17 14 CFG=3
M  V30 17 1 15 18
M  V30 18 1 16 19 CFG=3
M  V30 19 1 16 20
M  V30 20 1 17 21
M  V30 21 2 18 22
M  V30 22 1 18 23
M  V30 23 2 19 24
M  V30 24 1 19 25
M  V30 25 1 20 26
M  V30 26 1 20 27
M  V30 27 1 21 28 CFG=1
M  V30 28 1 21 29
M  V30 29 1 26 30 CFG=3
M  V30 30 1 27 31 CFG=1
M  V30 31 1 29 32 CFG=1
M  V30 32 1 29 33
M  V30 33 1 31 34
M  V30 34 2 34 35
M  V30 35 1 34 36
M  V30 36 1 35 37
M  V30 37 2 36 38
M  V30 38 2 37 39
M  V30 39 1 11 10 CFG=1
M  V30 40 1 16 17
M  V30 41 1 25 27
M  V30 42 1 26 29
M  V30 43 1 38 39
M  V30 END BOND
M  V30 BEGIN COLLECTION
M  V30 MDLV30/STEABS ATOMS=(11 3 4 6 11 13 16 17 21 26 27 29)
M  V30 END COLLECTION
M  V30 END CTAB
M  END
>  <Compound>
Cytochalasin P1

>  <Origin>
Xylaria karyophthora

>  <Reference>
Lambert C, Shao L, Zeng H, Surup F, Saetang P, Aime MC, Husbands DR, Rottner K, Stradal TEB, Stadler M. Cytochalasans produced by Xylaria karyophthora and their biological activities. Mycologia. 2023 May-Jun;115(3):277-287. doi: 10.1080/00275514.2023.2188868. Epub 2023 Apr 5. PMID: 37017575.

>  <Actin Disruption Activity (1h Treatment)>
not tested

>  <Reversibilty>
not tested

>  <Box ID>
3C0133

>  <Quantity>
available

>  <Cytotoxicity in L929 mouse fibroblasts [µM]>
27.7

>  <Synonyms>
compound 9
P13-1-1

>  <Subclass>
Cytochalasin

>  <Molecular Formula>
C30H39NO8

>  <Total Molweight>
541.639

>  <Smiles>
C[C@@H](C([C@H](Cc1ccccc1)N1)[C@@]([C@H]([C@@H]2O)/C=C/C[C@H](C)C([C@@](C)([C@@H]3O[C@H]33)O)=O)([C@@H]3OC(C)=O)C1=O)[C@@]2(C)O

>  <Amino Acid>
Phenylalanine

>  <Cytotoxicity in L929 mouse Fibroblasts [µg/mL]>
15.44 

>  <Cytotoxicity in KB3.1>


>  <Anti-Biofilm>
not tested

$$$$
Compound 59
Actelion Java MolfileCreator 2.0

  0  0  0  0  0  0              0 V3000
M  V30 BEGIN CTAB
M  V30 COUNTS 38 43 0 0 0
M  V30 BEGIN ATOM
M  V30 1 O 0.0 0.0 0.0 0
M  V30 2 C -0.949 1.1763 0.0 0
M  V30 3 C -2.406 0.8421 0.0 0 CFG=2
M  V30 4 C -0.3208 2.5264 0.0 0 CFG=2
M  V30 5 O -2.767 -0.5881 0.0 0
M  V30 6 C -3.569 1.7778 0.0 0
M  V30 7 C -1.3768 -0.1871 0.0 0
M  V30 8 C -0.9624 3.8631 0.0 0
M  V30 9 C 1.1362 2.5531 0.0 0
M  V30 10 C -4.8656 1.0426 0.0 0
M  V30 11 C -2.4194 4.1972 0.0 0
M  V30 12 C -6.1622 1.7778 0.0 0 CFG=1
M  V30 13 O -2.8204 4.8389 0.0 0
M  V30 14 C -3.5824 3.2615 0.0 0 CFG=1
M  V30 15 O -6.0687 0.0935 0.0 0
M  V30 16 C -6.1622 3.2615 0.0 0 CFG=1
M  V30 17 C -4.879 3.9967 0.0 0 CFG=2
M  V30 18 C -7.5257 -0.8421 0.0 0
M  V30 19 C -6.4697 1.8045 0.0 0
M  V30 20 C -7.4856 4.0235 0.0 0 CFG=1
M  V30 21 C -4.9057 5.5072 0.0 0 CFG=2
M  V30 22 O -9.0896 -0.0668 0.0 0
M  V30 23 C -7.4321 -2.5264 0.0 0
M  V30 24 O -6.8172 0.294 0.0 0
M  V30 25 N -7.9802 1.6842 0.0 0
M  V30 26 C -7.5123 5.534 0.0 0 CFG=1
M  V30 27 C -8.6084 3.0477 0.0 0 CFG=1
M  V30 28 O -4.9993 6.8841 0.0 0
M  V30 29 C -6.2291 6.2692 0.0 0 CFG=1
M  V30 30 C -8.8357 6.2959 0.0 0
M  V30 31 C -10.0922 3.3819 0.0 0
M  V30 32 C -7.5524 7.0311 0.0 0
M  V30 33 C -11.1215 2.2991 0.0 0
M  V30 34 C -12.6052 2.6333 0.0 0
M  V30 35 C -10.6937 0.9089 0.0 0
M  V30 36 C -13.6345 1.5505 0.0 0
M  V30 37 C -11.723 -0.1737 0.0 0
M  V30 38 C -13.2067 0.1604 0.0 0
M  V30 END ATOM
M  V30 BEGIN BOND
M  V30 1 2 1 2
M  V30 2 1 2 3
M  V30 3 1 2 4
M  V30 4 1 3 5 CFG=3
M  V30 5 1 3 6
M  V30 6 1 3 7
M  V30 7 1 4 8
M  V30 8 1 4 9 CFG=3
M  V30 9 2 6 10
M  V30 10 1 8 11
M  V30 11 1 10 12
M  V30 12 1 11 13
M  V30 13 1 11 14
M  V30 14 1 12 15 CFG=1
M  V30 15 1 12 16
M  V30 16 1 17 14 CFG=3
M  V30 17 1 15 18
M  V30 18 1 16 19 CFG=3
M  V30 19 1 16 20
M  V30 20 1 17 21
M  V30 21 2 18 22
M  V30 22 1 18 23
M  V30 23 2 19 24
M  V30 24 1 19 25
M  V30 25 1 20 26 CFG=3
M  V30 26 1 20 27
M  V30 27 1 21 28 CFG=1
M  V30 28 1 29 21 CFG=3
M  V30 29 1 26 30 CFG=3
M  V30 30 1 27 31 CFG=1
M  V30 31 1 29 32
M  V30 32 1 31 33
M  V30 33 2 33 34
M  V30 34 1 33 35
M  V30 35 1 34 36
M  V30 36 2 35 37
M  V30 37 2 36 38
M  V30 38 1 14 13 CFG=1
M  V30 39 1 16 17
M  V30 40 1 25 27
M  V30 41 1 26 29
M  V30 42 1 28 29
M  V30 43 1 37 38
M  V30 END BOND
M  V30 BEGIN COLLECTION
M  V30 MDLV30/STEABS ATOMS=(11 3 4 12 14 16 17 20 21 26 27 29)
M  V30 END COLLECTION
M  V30 END CTAB
M  END
>  <Compound>
Cytochalasin R

>  <Origin>
Xylaria sp.

>  <Reference>


>  <Actin Disruption Activity (1h Treatment)>
+++

>  <Reversibilty>
+

>  <Box ID>
3C0111

>  <Quantity>
0.4 mg

>  <Cytotoxicity in L929 mouse fibroblasts [µM]>
3.7

>  <Synonyms>
compound 14

>  <Subclass>
Cytochalasin

>  <Molecular Formula>
C30H39NO6

>  <Total Molweight>
509.641

>  <Smiles>
C[C@@H]([C@H]1[C@H](Cc2ccccc2)N2)[C@@]3(C)O[C@H]3[C@H]([C@@H]3OC3C[C@H](C)C[C@@](C)(/C=C/[C@H]3OC(C)=O)O)[C@]13C2=O

>  <Amino Acid>
Phenylalanine

>  <Cytotoxicity in L929 mouse Fibroblasts [µg/mL]>
1.9 

>  <Cytotoxicity in KB3.1>


>  <Anti-Biofilm>
not tested

$$$$
Compound 60
Actelion Java MolfileCreator 2.0

  0  0  0  0  0  0              0 V3000
M  V30 BEGIN CTAB
M  V30 COUNTS 35 38 0 0 0
M  V30 BEGIN ATOM
M  V30 1 O 0.0 0.0 0.0 0
M  V30 2 C 0.4449 1.4431 0.0 0
M  V30 3 N -1.0703 1.3108 0.0 0
M  V30 4 C 0.7335 2.9343 0.0 0 CFG=1
M  V30 5 C -1.6956 2.7058 0.0 0 CFG=2
M  V30 6 C 0.7095 1.4671 0.0 0 CFG=2
M  V30 7 C 2.0083 3.704 0.0 0 CFG=1
M  V30 8 C -0.5892 3.704 0.0 0 CFG=2
M  V30 9 C -3.1869 3.0425 0.0 0
M  V30 10 O 0.8057 -0.0481 0.0 0
M  V30 11 C 1.9843 0.7456 0.0 0
M  V30 12 C 3.2831 2.9824 0.0 0
M  V30 13 C 1.9843 5.2193 0.0 0
M  V30 14 C -0.6133 5.2193 0.0 0 CFG=1
M  V30 15 C -4.2091 1.9482 0.0 0
M  V30 16 C -0.493 -0.9019 0.0 0
M  V30 17 C 3.259 1.5152 0.0 0
M  V30 18 C 4.4255 3.9445 0.0 0
M  V30 19 C 0.6614 5.9889 0.0 0
M  V30 20 C -1.9361 5.9889 0.0 0
M  V30 21 C -5.7003 2.2849 0.0 0
M  V30 22 C -3.7761 0.5531 0.0 0
M  V30 23 O -1.9121 -0.2164 0.0 0
M  V30 24 C -0.3968 -2.4172 0.0 0
M  V30 25 C 4.4015 0.6013 0.0 0 CFG=2
M  V30 26 C 5.8567 3.6439 0.0 0
M  V30 27 C 0.6373 7.5042 0.0 0
M  V30 28 C -6.7225 1.1905 0.0 0
M  V30 29 C -4.8104 -0.5411 0.0 0
M  V30 30 O 5.4357 -0.4329 0.0 0
M  V30 31 C 5.8326 0.95 0.0 0
M  V30 32 C 4.0527 -0.8297 0.0 0
M  V30 33 C 6.47 2.321 0.0 0 CFG=1
M  V30 34 C -6.2896 -0.2044 0.0 0
M  V30 35 C 7.9372 2.345 0.0 0
M  V30 END ATOM
M  V30 BEGIN BOND
M  V30 1 2 1 2
M  V30 2 1 2 3
M  V30 3 1 4 2 CFG=3
M  V30 4 1 3 5
M  V30 5 1 4 6
M  V30 6 1 4 7
M  V30 7 1 4 8
M  V30 8 1 5 9 CFG=1
M  V30 9 1 6 10 CFG=1
M  V30 10 1 6 11
M  V30 11 1 7 12 CFG=3
M  V30 12 1 7 13
M  V30 13 1 8 14 CFG=3
M  V30 14 1 9 15
M  V30 15 1 10 16
M  V30 16 2 11 17
M  V30 17 2 12 18
M  V30 18 2 13 19
M  V30 19 1 14 20 CFG=3
M  V30 20 2 15 21
M  V30 21 1 15 22
M  V30 22 2 16 23
M  V30 23 1 16 24
M  V30 24 1 17 25
M  V30 25 1 18 26
M  V30 26 1 19 27
M  V30 27 1 21 28
M  V30 28 2 22 29
M  V30 29 1 25 30 CFG=1
M  V30 30 1 25 31
M  V30 31 1 25 32
M  V30 32 1 26 33
M  V30 33 2 28 34
M  V30 34 1 33 35 CFG=3
M  V30 35 1 5 8
M  V30 36 1 14 19
M  V30 37 1 29 34
M  V30 38 1 31 33
M  V30 END BOND
M  V30 BEGIN COLLECTION
M  V30 MDLV30/STEABS ATOMS=(8 4 5 6 7 8 14 25 33)
M  V30 END COLLECTION
M  V30 END CTAB
M  END
>  <Compound>
Cytochalasin RKS-1778

>  <Origin>
Diaporte ueckeri

>  <Reference>
Kemkuignou BM, Lambert C, Schmidt K, Schweizer L, Anoumedem EGM, Kouam SF, Stadler M, Stradal T, Marin-Felix Y. Unreported cytochalasins from an acid-mediated transformation of cytochalasin J isolated from Diaporthe cf. ueckeri. Fitoterapia. 2023 Apr;166:105434. doi: 10.1016/j.fitote.2023.105434. Epub 2023 Jan 19. PMID: 36681097.

>  <Actin Disruption Activity (1h Treatment)>
-

>  <Reversibilty>
+

>  <Box ID>
2C0082

>  <Quantity>
0.69 mg

>  <Cytotoxicity in L929 mouse fibroblasts [µM]>
1.3

>  <Synonyms>
compound 10

>  <Subclass>
Cytochalasin

>  <Molecular Formula>
C30H39NO4

>  <Total Molweight>
477.643

>  <Smiles>
C[C@@H]([C@@H]([C@H](Cc1ccccc1)N1)[C@@]2([C@@H](/C=C3)OC(C)=O)C1=O)C(C)=C[C@@H]2/C=C/C[C@H](C)C[C@@]\3(C)O

>  <Amino Acid>
Phenylalanine

>  <Cytotoxicity in L929 mouse Fibroblasts [µg/mL]>
0.62

>  <Cytotoxicity in KB3.1>


>  <Anti-Biofilm>
not tested

$$$$
Compound 61
Actelion Java MolfileCreator 2.0

  0  0  0  0  0  0              0 V3000
M  V30 BEGIN CTAB
M  V30 COUNTS 35 38 0 0 0
M  V30 BEGIN ATOM
M  V30 1 O 0.0 0.0 0.0 0
M  V30 2 C 0.0 1.5402 0.0 0
M  V30 3 O -0.7637 2.5967 0.0 0
M  V30 4 C 1.2983 2.2912 0.0 0
M  V30 5 C -1.311 3.8951 0.0 0 CFG=2
M  V30 6 C 2.5712 1.5402 0.0 0
M  V30 7 C -1.6675 2.4439 0.0 0
M  V30 8 C -0.0127 4.6461 0.0 0 CFG=1
M  V30 9 C -2.6349 4.697 0.0 0 CFG=1
M  V30 10 C 3.8696 2.2912 0.0 0 CFG=2
M  V30 11 O -1.7693 1.2983 0.0 0
M  V30 12 N -3.195 2.3421 0.0 0
M  V30 13 C 1.2601 3.8951 0.0 0
M  V30 14 C -0.0127 6.1863 0.0 0
M  V30 15 C -2.6349 6.2372 0.0 0 CFG=1
M  V30 16 C -3.806 3.7296 0.0 0 CFG=1
M  V30 17 O 3.8441 0.6873 0.0 0
M  V30 18 C 5.1425 1.5402 0.0 0
M  V30 19 C 2.5585 4.6461 0.0 0
M  V30 20 C -1.3365 6.9882 0.0 0
M  V30 21 C -3.9587 7.0392 0.0 0
M  V30 22 C -5.308 4.086 0.0 0
M  V30 23 C 6.4409 2.2912 0.0 0
M  V30 24 C 3.8314 3.8951 0.0 0
M  V30 25 C -1.3365 8.5285 0.0 0
M  V30 26 C -6.3645 3.004 0.0 0
M  V30 27 C 6.4409 3.8314 0.0 0
M  V30 28 C 5.1298 4.6461 0.0 0 CFG=1
M  V30 29 O -0.0381 9.2795 0.0 0
M  V30 30 C -7.8665 3.3604 0.0 0
M  V30 31 C -5.9572 1.5784 0.0 0
M  V30 32 C 5.1298 6.1863 0.0 0
M  V30 33 C -8.9231 2.2785 0.0 0
M  V30 34 C -7.0137 0.4964 0.0 0
M  V30 35 C -8.5157 0.8528 0.0 0
M  V30 END ATOM
M  V30 BEGIN BOND
M  V30 1 2 1 2
M  V30 2 1 2 3
M  V30 3 1 2 4
M  V30 4 1 5 3 CFG=1
M  V30 5 2 4 6
M  V30 6 1 5 7
M  V30 7 1 5 8
M  V30 8 1 5 9
M  V30 9 1 6 10
M  V30 10 2 7 11
M  V30 11 1 7 12
M  V30 12 1 8 13 CFG=3
M  V30 13 1 8 14
M  V30 14 1 9 15 CFG=3
M  V30 15 1 9 16
M  V30 16 1 10 17 CFG=3
M  V30 17 1 10 18
M  V30 18 2 13 19
M  V30 19 2 14 20
M  V30 20 1 15 21 CFG=3
M  V30 21 1 16 22 CFG=1
M  V30 22 1 18 23
M  V30 23 1 19 24
M  V30 24 1 20 25
M  V30 25 1 22 26
M  V30 26 1 23 27
M  V30 27 1 24 28
M  V30 28 1 25 29
M  V30 29 2 26 30
M  V30 30 1 26 31
M  V30 31 1 28 32 CFG=3
M  V30 32 1 30 33
M  V30 33 2 31 34
M  V30 34 2 33 35
M  V30 35 1 12 16
M  V30 36 1 15 20
M  V30 37 1 27 28
M  V30 38 1 34 35
M  V30 END BOND
M  V30 BEGIN COLLECTION
M  V30 MDLV30/STEABS ATOMS=(7 5 8 9 10 15 16 28)
M  V30 END COLLECTION
M  V30 END CTAB
M  END
>  <Compound>
Cytochalasin Z2

>  <Origin>
Preussia similis

>  <Reference>
Kretz, R., Wendt, L., Wongkanoun, S., Luangsa-ard, J., Surup, F., Helaly, S., … Stradal, T. (2019). The Effect of Cytochalasans on the Actin Cytoskeleton of Eukaryotic Cells and Preliminary Structure–Activity Relationships. Biomolecules, 9(2), 73. doi:10.

>  <Actin Disruption Activity (1h Treatment)>
+

>  <Reversibilty>
+

>  <Box ID>
not available

>  <Quantity>
not available

>  <Cytotoxicity in L929 mouse fibroblasts [µM]>
not tested

>  <Synonyms>
compound 11

>  <Subclass>
Cytochalasin

>  <Molecular Formula>
C29H37NO5

>  <Total Molweight>
479.615

>  <Smiles>
C[C@@H]([C@@H]([C@H](Cc1ccccc1)NC1=O)[C@@]11OC(/C=C2)=O)C(CO)=C[C@@H]1/C=C/C[C@H](C)CCC[C@H]\2O

>  <Amino Acid>
Phenylalanine

>  <Cytotoxicity in L929 mouse Fibroblasts [µg/mL]>
not tested

>  <Cytotoxicity in KB3.1>


>  <Anti-Biofilm>
not tested

$$$$
Compound 62
Actelion Java MolfileCreator 2.0

  0  0  0  0  0  0              0 V3000
M  V30 BEGIN CTAB
M  V30 COUNTS 34 37 0 0 0
M  V30 BEGIN ATOM
M  V30 1 O 0.0 0.0 0.0 0
M  V30 2 C -0.0118 1.5219 0.0 0
M  V30 3 O -1.3316 2.2947 0.0 0
M  V30 4 C 1.2841 2.2947 0.0 0
M  V30 5 C -1.3435 3.8047 0.0 0 CFG=2
M  V30 6 C 2.0094 1.1295 0.0 0
M  V30 7 C -1.6764 2.3542 0.0 0
M  V30 8 C -0.0475 4.5538 0.0 0 CFG=1
M  V30 9 C -2.6514 4.5776 0.0 0 CFG=1
M  V30 10 C 3.4837 0.9511 0.0 0
M  V30 11 O -2.1283 0.9036 0.0 0
M  V30 12 N -3.1865 2.2234 0.0 0
M  V30 13 C 1.2484 3.8285 0.0 0
M  V30 14 C -0.0475 6.0638 0.0 0 CFG=2
M  V30 15 C -2.6514 6.0876 0.0 0 CFG=1
M  V30 16 C -3.781 3.5907 0.0 0 CFG=1
M  V30 17 C 4.6608 1.8905 0.0 0
M  V30 18 C 3.8761 -0.4874 0.0 0
M  V30 19 C 2.4255 4.7678 0.0 0
M  V30 20 O 1.2484 6.8129 0.0 0
M  V30 21 C -1.3554 6.8367 0.0 0
M  V30 22 C -3.9593 6.8605 0.0 0
M  V30 23 C -5.2553 3.9236 0.0 0
M  V30 24 O 5.9568 1.1652 0.0 0
M  V30 25 C 4.8392 3.3886 0.0 0 CFG=2
M  V30 26 C 3.8999 4.5895 0.0 0
M  V30 27 C -1.3554 8.3467 0.0 0
M  V30 28 C -6.2778 2.8298 0.0 0
M  V30 29 C 6.2778 3.8047 0.0 0
M  V30 30 C -7.7522 3.1627 0.0 0
M  V30 31 C -5.8379 1.4149 0.0 0
M  V30 32 C -8.7747 2.0688 0.0 0
M  V30 33 C -6.8605 0.321 0.0 0
M  V30 34 C -8.3348 0.6539 0.0 0
M  V30 END ATOM
M  V30 BEGIN BOND
M  V30 1 2 1 2
M  V30 2 1 2 3
M  V30 3 1 2 4
M  V30 4 1 5 3 CFG=1
M  V30 5 2 4 6
M  V30 6 1 5 7
M  V30 7 1 5 8
M  V30 8 1 5 9
M  V30 9 1 6 10
M  V30 10 2 7 11
M  V30 11 1 7 12
M  V30 12 1 8 13 CFG=3
M  V30 13 1 8 14
M  V30 14 1 9 15 CFG=3
M  V30 15 1 9 16
M  V30 16 1 10 17
M  V30 17 1 10 18
M  V30 18 2 13 19
M  V30 19 1 14 20 CFG=1
M  V30 20 1 14 21
M  V30 21 1 15 22 CFG=3
M  V30 22 1 16 23 CFG=1
M  V30 23 1 17 24
M  V30 24 1 17 25
M  V30 25 1 19 26
M  V30 26 2 21 27
M  V30 27 1 23 28
M  V30 28 1 25 29 CFG=3
M  V30 29 2 28 30
M  V30 30 1 28 31
M  V30 31 1 30 32
M  V30 32 2 31 33
M  V30 33 2 32 34
M  V30 34 1 12 16
M  V30 35 1 15 21
M  V30 36 1 25 26
M  V30 37 1 33 34
M  V30 END BOND
M  V30 BEGIN COLLECTION
M  V30 MDLV30/STEABS ATOMS=(7 5 8 9 14 15 16 25)
M  V30 END COLLECTION
M  V30 END CTAB
M  END
>  <Compound>
Cytochalasin Z7

>  <Origin>
Nemania diffusa

>  <Reference>
Demir, Ö.; Schmidt, K.; Schulz, B.; Stradal, T.E.B.; Surup, F. Cytochalasins from the Ash Endophytic Fungus Nemania diffusa DSM 116299. Molecules 2025, 30, 957. https://doi.org/10.3390/molecules30040957

>  <Actin Disruption Activity (1h Treatment)>
++

>  <Reversibilty>
+

>  <Box ID>
3C0118

>  <Quantity>
0.57

>  <Cytotoxicity in L929 mouse fibroblasts [µM]>
43

>  <Synonyms>
coumpound 3

>  <Subclass>
Cytochalasin

>  <Molecular Formula>
C28H35NO5

>  <Total Molweight>
465.588

>  <Smiles>
C[C@@H]([C@@H]([C@H](Cc1ccccc1)NC1=O)[C@@]1([C@H]([C@@H]1O)/C=C/C[C@H](C)C(C(C)/C=C2)O)OC\2=O)C1=C

>  <Amino Acid>
Phenylalanine

>  <Cytotoxicity in L929 mouse Fibroblasts [µg/mL]>
28

>  <Cytotoxicity in KB3.1>


>  <Anti-Biofilm>
not tested

$$$$
Compound 63
Actelion Java MolfileCreator 2.0

  0  0  0  0  0  0              0 V3000
M  V30 BEGIN CTAB
M  V30 COUNTS 34 37 0 0 0
M  V30 BEGIN ATOM
M  V30 1 O 0.0 0.0 0.0 0
M  V30 2 C -0.0118 1.5219 0.0 0
M  V30 3 O -1.3316 2.2947 0.0 0
M  V30 4 C 1.2841 2.2947 0.0 0
M  V30 5 C -1.3435 3.8047 0.0 0 CFG=2
M  V30 6 C 2.0094 1.1295 0.0 0
M  V30 7 C -1.6764 2.3542 0.0 0
M  V30 8 C -0.0475 4.5538 0.0 0 CFG=1
M  V30 9 C -2.6514 4.5776 0.0 0 CFG=1
M  V30 10 C 3.4837 0.9511 0.0 0
M  V30 11 O -2.1283 0.9036 0.0 0
M  V30 12 N -3.1865 2.2234 0.0 0
M  V30 13 C 1.2484 3.8285 0.0 0
M  V30 14 C -0.0475 6.0638 0.0 0 CFG=2
M  V30 15 C -2.6514 6.0876 0.0 0
M  V30 16 C -3.781 3.5907 0.0 0 CFG=1
M  V30 17 C 4.6608 1.8905 0.0 0 CFG=2
M  V30 18 C 3.8761 -0.4874 0.0 0
M  V30 19 C 2.4255 4.7678 0.0 0
M  V30 20 O 1.2484 6.8129 0.0 0
M  V30 21 C -1.3554 6.8367 0.0 0
M  V30 22 C -3.9593 6.8605 0.0 0
M  V30 23 C -5.2553 3.9236 0.0 0
M  V30 24 O 5.9568 1.1652 0.0 0
M  V30 25 C 4.8392 3.3886 0.0 0 CFG=2
M  V30 26 C 3.8999 4.5895 0.0 0
M  V30 27 C -1.3554 8.3467 0.0 0
M  V30 28 C -6.2778 2.8298 0.0 0
M  V30 29 C 6.2778 3.8047 0.0 0
M  V30 30 C -7.7522 3.1627 0.0 0
M  V30 31 C -5.8379 1.4149 0.0 0
M  V30 32 C -8.7747 2.0688 0.0 0
M  V30 33 C -6.8605 0.321 0.0 0
M  V30 34 C -8.3348 0.6539 0.0 0
M  V30 END ATOM
M  V30 BEGIN BOND
M  V30 1 2 1 2
M  V30 2 1 2 3
M  V30 3 1 2 4
M  V30 4 1 5 3 CFG=1
M  V30 5 2 4 6
M  V30 6 1 5 7
M  V30 7 1 5 8
M  V30 8 1 5 9
M  V30 9 1 6 10
M  V30 10 2 7 11
M  V30 11 1 7 12
M  V30 12 1 8 13 CFG=3
M  V30 13 1 8 14
M  V30 14 1 9 15 CFG=3
M  V30 15 1 9 16
M  V30 16 1 10 17
M  V30 17 1 10 18
M  V30 18 2 13 19
M  V30 19 1 14 20 CFG=1
M  V30 20 1 14 21
M  V30 21 1 15 22
M  V30 22 1 16 23 CFG=1
M  V30 23 1 17 24 CFG=1
M  V30 24 1 17 25
M  V30 25 1 19 26
M  V30 26 1 21 27
M  V30 27 1 23 28
M  V30 28 1 25 29 CFG=3
M  V30 29 2 28 30
M  V30 30 1 28 31
M  V30 31 1 30 32
M  V30 32 2 31 33
M  V30 33 2 32 34
M  V30 34 1 12 16
M  V30 35 2 15 21
M  V30 36 1 25 26
M  V30 37 1 33 34
M  V30 END BOND
M  V30 BEGIN COLLECTION
M  V30 MDLV30/STEABS ATOMS=(7 5 8 9 14 16 17 25)
M  V30 END COLLECTION
M  V30 END CTAB
M  END
>  <Compound>
Cytochalasin Z8

>  <Origin>
Nemania diffusa

>  <Reference>
Demir, Ö.; Schmidt, K.; Schulz, B.; Stradal, T.E.B.; Surup, F. Cytochalasins from the Ash Endophytic Fungus Nemania diffusa DSM 116299. Molecules 2025, 30, 957. https://doi.org/10.3390/molecules30040957

>  <Actin Disruption Activity (1h Treatment)>
++

>  <Reversibilty>
-

>  <Box ID>
3C0119

>  <Quantity>
0.64

>  <Cytotoxicity in L929 mouse fibroblasts [µM]>
22 

>  <Synonyms>
compound 4

>  <Subclass>
Cytochalasin

>  <Molecular Formula>
C28H35NO5

>  <Total Molweight>
465.588

>  <Smiles>
C[C@@H](C/C=C/[C@@H]([C@@H](C(C)=C(C)[C@H]1[C@H](Cc2ccccc2)NC2=O)O)[C@@]12OC(/C=C/C1C)=O)[C@H]1O

>  <Amino Acid>
Phenylalanine

>  <Cytotoxicity in L929 mouse Fibroblasts [µg/mL]>
10 

>  <Cytotoxicity in KB3.1>


>  <Anti-Biofilm>
not tested

$$$$
Compound 64
Actelion Java MolfileCreator 2.0

  0  0  0  0  0  0              0 V3000
M  V30 BEGIN CTAB
M  V30 COUNTS 35 39 0 0 0
M  V30 BEGIN ATOM
M  V30 1 O 0.0 0.0 0.0 0
M  V30 2 C -0.9923 1.132 0.0 0
M  V30 3 C -2.6555 0.7966 0.0 0 CFG=2
M  V30 4 C -0.4612 2.6694 0.0 0 CFG=2
M  V30 5 O -1.3696 -0.7966 0.0 0
M  V30 6 C -3.9413 1.5373 0.0 0 CFG=2
M  V30 7 C -2.6974 -0.6009 0.0 0
M  V30 8 C -1.5513 3.7316 0.0 0
M  V30 9 C 1.16 2.7253 0.0 0
M  V30 10 O -3.9832 0.2375 0.0 0
M  V30 11 C -5.2271 0.8805 0.0 0 CFG=1
M  V30 12 C -2.7673 3.7596 0.0 0
M  V30 13 C -6.1915 1.3277 0.0 0 CFG=1
M  V30 14 C -4.0531 3.1027 0.0 0
M  V30 15 O -6.2334 -0.2935 0.0 0
M  V30 16 C -6.5548 3.1167 0.0 0 CFG=1
M  V30 17 C -5.3389 3.8434 0.0 0
M  V30 18 C -7.3096 1.3557 0.0 0
M  V30 19 C -7.8407 3.8574 0.0 0 CFG=1
M  V30 20 C -5.3808 5.3249 0.0 0 CFG=2
M  V30 21 O -7.3515 -0.2236 0.0 0
M  V30 22 N -8.9448 1.761 0.0 0
M  V30 23 C -7.8826 5.3389 0.0 0
M  V30 24 C -9.1265 3.2005 0.0 0 CFG=1
M  V30 25 O -4.1789 6.0657 0.0 0
M  V30 26 C -6.6667 6.0657 0.0 0
M  V30 27 C -9.1684 6.0796 0.0 0
M  V30 28 C -10.4123 3.9413 0.0 0
M  V30 29 C -6.7086 7.5472 0.0 0
M  V30 30 C -11.6981 3.2844 0.0 0
M  V30 31 C -12.9839 4.0251 0.0 0
M  V30 32 C -11.7401 1.8868 0.0 0
M  V30 33 C -14.2698 3.3682 0.0 0
M  V30 34 C -13.0259 1.2299 0.0 0
M  V30 35 C -14.3117 1.9706 0.0 0
M  V30 END ATOM
M  V30 BEGIN BOND
M  V30 1 2 1 2
M  V30 2 1 2 3
M  V30 3 1 2 4
M  V30 4 1 3 5 CFG=3
M  V30 5 1 3 6
M  V30 6 1 3 7
M  V30 7 1 4 8
M  V30 8 1 4 9 CFG=3
M  V30 9 1 6 10 CFG=1
M  V30 10 1 6 11
M  V30 11 1 8 12
M  V30 12 1 11 13
M  V30 13 2 12 14 CFG=2
M  V30 14 1 13 15 CFG=1
M  V30 15 1 13 16
M  V30 16 1 14 17
M  V30 17 1 16 18
M  V30 18 1 16 19
M  V30 19 1 17 20
M  V30 20 2 18 21
M  V30 21 1 18 22
M  V30 22 1 19 23 CFG=3
M  V30 23 1 19 24
M  V30 24 1 20 25 CFG=1
M  V30 25 1 20 26
M  V30 26 1 23 27
M  V30 27 1 24 28 CFG=1
M  V30 28 1 26 29
M  V30 29 1 28 30
M  V30 30 2 30 31
M  V30 31 1 30 32
M  V30 32 1 31 33
M  V30 33 2 32 34
M  V30 34 2 33 35
M  V30 35 1 11 10 CFG=1
M  V30 36 1 16 17 CFG=3
M  V30 37 1 22 24
M  V30 38 2 23 26
M  V30 39 1 34 35
M  V30 END BOND
M  V30 BEGIN COLLECTION
M  V30 MDLV30/STEABS ATOMS=(9 3 4 6 11 13 16 19 20 24)
M  V30 END COLLECTION
M  V30 END CTAB
M  END
>  <Compound>
Deacetyl 19,20-epoxycytochalasin C

>  <Origin>
Xylaria karyophthora

>  <Reference>
Lambert C, Shao L, Zeng H, Surup F, Saetang P, Aime MC, Husbands DR, Rottner K, Stradal TEB, Stadler M. Cytochalasans produced by Xylaria karyophthora and their biological activities. Mycologia. 2023 May-Jun;115(3):277-287. doi: 10.1080/00275514.2023.2188868. Epub 2023 Apr 5. PMID: 37017575.

>  <Actin Disruption Activity (1h Treatment)>
+

>  <Reversibilty>
+

>  <Box ID>
1C0032

>  <Quantity>
available

>  <Cytotoxicity in L929 mouse fibroblasts [µM]>
2.1

>  <Synonyms>
compound 4
P83-3

>  <Subclass>
Cytochalasin

>  <Molecular Formula>
C28H35NO6

>  <Total Molweight>
481.587

>  <Smiles>
C[C@@H](CC=CC([C@@H](C(C)=C(C)[C@H]1[C@H](Cc2ccccc2)N2)O)[C@]1([C@@H]([C@@H]1O[C@H]1[C@@]1(C)O)O)C2=O)C1=O

>  <Amino Acid>
Phenylalanine

>  <Cytotoxicity in L929 mouse Fibroblasts [µg/mL]>
0.99

>  <Cytotoxicity in KB3.1>


>  <Anti-Biofilm>
not tested

$$$$
Compound 65
Actelion Java MolfileCreator 2.0

  0  0  0  0  0  0              0 V3000
M  V30 BEGIN CTAB
M  V30 COUNTS 34 37 0 0 0
M  V30 BEGIN ATOM
M  V30 1 O 0.0 0.0 0.0 0
M  V30 2 C 0.1248 1.5979 0.0 0
M  V30 3 C 1.3607 0.8364 0.0 0
M  V30 4 C 0.1373 3.1335 0.0 0 CFG=2
M  V30 5 C 1.0486 -0.5992 0.0 0
M  V30 6 C -0.2621 1.7103 0.0 0
M  V30 7 C 1.4232 3.895 0.0 0 CFG=1
M  V30 8 C -1.1735 3.945 0.0 0 CFG=1
M  V30 9 C 2.0224 -1.6728 0.0 0 CFG=1
M  V30 10 O -0.9113 0.337 0.0 0
M  V30 11 N -1.7977 1.6354 0.0 0
M  V30 12 C 2.6591 3.1335 0.0 0
M  V30 13 C 1.4356 5.4306 0.0 0 CFG=2
M  V30 14 C -1.161 5.4805 0.0 0 CFG=1
M  V30 15 C -2.347 3.0211 0.0 0 CFG=1
M  V30 16 O 1.3982 -3.0336 0.0 0
M  V30 17 C 3.4955 -1.5605 0.0 0
M  V30 18 C 3.945 3.895 0.0 0
M  V30 19 O 2.7215 6.1921 0.0 0
M  V30 20 C 0.1248 6.2421 0.0 0
M  V30 21 C -2.4718 6.292 0.0 0
M  V30 22 C -3.8451 3.4206 0.0 0
M  V30 23 C 4.332 -0.3121 0.0 0
M  V30 24 C 5.1809 3.1335 0.0 0
M  V30 25 C 0.1373 7.7776 0.0 0
M  V30 26 C -4.9187 2.3844 0.0 0
M  V30 27 C 3.7327 0.9488 0.0 0
M  V30 28 C 5.0935 1.6728 0.0 0 CFG=1
M  V30 29 C -6.4169 2.7839 0.0 0
M  V30 30 C -4.5317 0.9862 0.0 0
M  V30 31 C 6.3295 0.9113 0.0 0
M  V30 32 C -7.4905 1.7477 0.0 0
M  V30 33 C -5.6054 -0.0499 0.0 0
M  V30 34 C -7.1035 0.3495 0.0 0
M  V30 END ATOM
M  V30 BEGIN BOND
M  V30 1 2 1 2
M  V30 2 1 2 3
M  V30 3 1 4 2 CFG=1
M  V30 4 2 3 5
M  V30 5 1 4 6
M  V30 6 1 4 7
M  V30 7 1 4 8
M  V30 8 1 5 9
M  V30 9 2 6 10
M  V30 10 1 6 11
M  V30 11 1 7 12 CFG=3
M  V30 12 1 7 13
M  V30 13 1 8 14 CFG=3
M  V30 14 1 8 15
M  V30 15 1 9 16 CFG=3
M  V30 16 1 9 17
M  V30 17 2 12 18 CFG=2
M  V30 18 1 13 19 CFG=1
M  V30 19 1 13 20
M  V30 20 1 14 21 CFG=3
M  V30 21 1 15 22 CFG=1
M  V30 22 1 17 23
M  V30 23 1 18 24
M  V30 24 2 20 25
M  V30 25 1 22 26
M  V30 26 1 23 27
M  V30 27 1 24 28
M  V30 28 2 26 29
M  V30 29 1 26 30
M  V30 30 1 28 31 CFG=3
M  V30 31 1 29 32
M  V30 32 2 30 33
M  V30 33 2 32 34
M  V30 34 1 11 15
M  V30 35 1 14 20
M  V30 36 1 27 28
M  V30 37 1 33 34
M  V30 END BOND
M  V30 BEGIN COLLECTION
M  V30 MDLV30/STEABS ATOMS=(8 4 7 8 9 13 14 15 28)
M  V30 END COLLECTION
M  V30 END CTAB
M  END
>  <Compound>
Deoxaphomin

>  <Origin>
Preussia similis

>  <Reference>
Kretz, R., Wendt, L., Wongkanoun, S., Luangsa-ard, J., Surup, F., Helaly, S., … Stradal, T. (2019). The Effect of Cytochalasans on the Actin Cytoskeleton of Eukaryotic Cells and Preliminary Structure–Activity Relationships. Biomolecules, 9(2), 73. doi:10.

>  <Actin Disruption Activity (1h Treatment)>
+++

>  <Reversibilty>
-

>  <Box ID>
2C0066

>  <Quantity>
1.73

>  <Cytotoxicity in L929 mouse fibroblasts [µM]>
not tested

>  <Synonyms>
compound 5

>  <Subclass>
Cytochalasin

>  <Molecular Formula>
C29H37NO4

>  <Total Molweight>
463.616

>  <Smiles>
C[C@@H](C(C(Cc1ccccc1)NC1=O)[C@@]1(C([C@@H]1O)C=CC[C@H](C)CCC[C@@H](/C=C2)O)C\2=O)C1=C

>  <Amino Acid>
Phenylalanine

>  <Cytotoxicity in L929 mouse Fibroblasts [µg/mL]>
not tested

>  <Cytotoxicity in KB3.1>


>  <Anti-Biofilm>
+

$$$$
Compound 66
Actelion Java MolfileCreator 2.0

  0  0  0  0  0  0              0 V3000
M  V30 BEGIN CTAB
M  V30 COUNTS 34 37 0 0 0
M  V30 BEGIN ATOM
M  V30 1 O 0.0 0.0 0.0 0
M  V30 2 C 0.1361 1.5844 0.0 0
M  V30 3 C 1.3863 0.8169 0.0 0
M  V30 4 C 0.1609 3.107 0.0 0 CFG=2
M  V30 5 C 1.0893 -0.6313 0.0 0
M  V30 6 C -0.2228 1.6711 0.0 0
M  V30 7 C 1.4606 3.8497 0.0 0 CFG=1
M  V30 8 C -1.1388 3.9116 0.0 0 CFG=1
M  V30 9 C 2.0795 -1.7206 0.0 0 CFG=2
M  V30 10 O -0.8541 0.2847 0.0 0
M  V30 11 N -1.7453 1.5844 0.0 0
M  V30 12 C 2.7108 3.0822 0.0 0
M  V30 13 C 1.4854 5.3722 0.0 0 CFG=2
M  V30 14 C -1.114 5.4341 0.0 0
M  V30 15 C -2.3024 2.9708 0.0 0 CFG=1
M  V30 16 O 1.473 -3.0946 0.0 0
M  V30 17 C 3.565 -1.6215 0.0 0
M  V30 18 C 4.0106 3.8249 0.0 0
M  V30 19 O 2.7851 6.1149 0.0 0
M  V30 20 C 0.1856 6.1768 0.0 0
M  V30 21 C -2.4138 6.2387 0.0 0
M  V30 22 C -3.7878 3.3545 0.0 0
M  V30 23 C 4.4191 -0.3837 0.0 0
M  V30 24 C 5.2608 3.0574 0.0 0
M  V30 25 C 0.2104 7.6994 0.0 0
M  V30 26 C -4.8523 2.3024 0.0 0
M  V30 27 C 3.8373 0.8664 0.0 0
M  V30 28 C 5.1865 1.5844 0.0 0 CFG=1
M  V30 29 C -6.3378 2.6861 0.0 0
M  V30 30 C -4.4562 0.8912 0.0 0
M  V30 31 C 6.4368 0.8169 0.0 0
M  V30 32 C -7.4023 1.6339 0.0 0
M  V30 33 C -5.5208 -0.1609 0.0 0
M  V30 34 C -7.0062 0.2228 0.0 0
M  V30 END ATOM
M  V30 BEGIN BOND
M  V30 1 2 1 2
M  V30 2 1 2 3
M  V30 3 1 4 2 CFG=1
M  V30 4 2 3 5
M  V30 5 1 4 6
M  V30 6 1 4 7
M  V30 7 1 4 8
M  V30 8 1 5 9
M  V30 9 2 6 10
M  V30 10 1 6 11
M  V30 11 1 7 12 CFG=3
M  V30 12 1 7 13
M  V30 13 1 8 14 CFG=3
M  V30 14 1 8 15
M  V30 15 1 9 16 CFG=1
M  V30 16 1 9 17
M  V30 17 2 12 18 CFG=2
M  V30 18 1 13 19 CFG=1
M  V30 19 1 13 20
M  V30 20 1 14 21
M  V30 21 1 15 22 CFG=1
M  V30 22 1 17 23
M  V30 23 1 18 24
M  V30 24 1 20 25
M  V30 25 1 22 26
M  V30 26 1 23 27
M  V30 27 1 24 28
M  V30 28 2 26 29
M  V30 29 1 26 30
M  V30 30 1 28 31 CFG=3
M  V30 31 1 29 32
M  V30 32 2 30 33
M  V30 33 2 32 34
M  V30 34 1 11 15
M  V30 35 2 14 20
M  V30 36 1 27 28
M  V30 37 1 33 34
M  V30 END BOND
M  V30 BEGIN COLLECTION
M  V30 MDLV30/STEABS ATOMS=(7 4 7 8 9 13 15 28)
M  V30 END COLLECTION
M  V30 END CTAB
M  END
>  <Compound>
Deoxaphomin B

>  <Origin>
Sparticola triseptata

>  <Reference>
Garcia, K.Y.M.; Quimque, M.T.J.; Lambert, C.; Schmidt, K.; Primahana, G.; Stradal, T.E.B.; Ratzenböck, A.; Dahse, H.-M.; Phukhamsakda, C.; Stadler, M.; Surup, F.; Macabeo, A.P.G. Antiproliferative and Cytotoxic Cytochalasins from Sparticola triseptata Inh

>  <Actin Disruption Activity (1h Treatment)>
++

>  <Reversibilty>
+

>  <Box ID>
2C0091

>  <Quantity>
1.27 mg

>  <Cytotoxicity in L929 mouse fibroblasts [µM]>
5.2

>  <Synonyms>
compound 2

>  <Subclass>
Cytochalasin

>  <Molecular Formula>
C29H37NO4

>  <Total Molweight>
463.616

>  <Smiles>
C[C@H](CCC[C@H](/C=C1)O)CC=CC([C@@H](C(C)=C(C)C2C(Cc3ccccc3)NC3=O)O)[C@@]23C\1=O

>  <Amino Acid>
Phenylalanine

>  <Cytotoxicity in L929 mouse Fibroblasts [µg/mL]>
2.4

>  <Cytotoxicity in KB3.1>


>  <Anti-Biofilm>
not tested

$$$$
Compound 67
Actelion Java MolfileCreator 2.0

  0  0  0  0  0  0              0 V3000
M  V30 BEGIN CTAB
M  V30 COUNTS 35 39 0 0 0
M  V30 BEGIN ATOM
M  V30 1 O 0.0 0.0 0.0 0
M  V30 2 C -0.9627 1.1064 0.0 0
M  V30 3 C -2.6151 0.7328 0.0 0 CFG=2
M  V30 4 C -0.3879 2.6295 0.0 0 CFG=2
M  V30 5 O -1.2932 -0.9052 0.0 0
M  V30 6 C -3.8796 1.4656 0.0 0 CFG=2
M  V30 7 C -2.6295 -0.704 0.0 0
M  V30 8 C -1.4512 3.6641 0.0 0
M  V30 9 C 1.2788 2.6582 0.0 0
M  V30 10 O -3.894 0.1293 0.0 0
M  V30 11 C -5.1441 0.7615 0.0 0 CFG=1
M  V30 12 C -2.6439 3.6641 0.0 0
M  V30 13 C -6.0781 1.1926 0.0 0 CFG=1
M  V30 14 C -3.9084 2.96 0.0 0
M  V30 15 O -6.0925 -0.4741 0.0 0
M  V30 16 C -6.4229 2.9744 0.0 0 CFG=1
M  V30 17 C -5.1728 3.6928 0.0 0
M  V30 18 C -7.1701 1.1638 0.0 0
M  V30 19 C -7.6874 3.7072 0.0 0 CFG=1
M  V30 20 C -5.1872 5.1585 0.0 0 CFG=2
M  V30 21 O -7.1845 -0.4598 0.0 0
M  V30 22 N -8.7939 1.5518 0.0 0
M  V30 23 C -7.7018 5.1728 0.0 0 CFG=1
M  V30 24 C -8.9519 3.0031 0.0 0 CFG=1
M  V30 25 O -3.9515 5.8913 0.0 0
M  V30 26 C -6.4517 5.8913 0.0 0
M  V30 27 C -8.9663 5.9057 0.0 0
M  V30 28 C -10.2164 3.7359 0.0 0
M  V30 29 C -6.4661 7.2564 0.0 0
M  V30 30 C -11.4809 3.0318 0.0 0
M  V30 31 C -12.7454 3.7647 0.0 0
M  V30 32 C -11.4952 1.5949 0.0 0
M  V30 33 C -14.0098 3.0606 0.0 0
M  V30 34 C -12.7597 0.8908 0.0 0
M  V30 35 C -14.0242 1.6237 0.0 0
M  V30 END ATOM
M  V30 BEGIN BOND
M  V30 1 2 1 2
M  V30 2 1 2 3
M  V30 3 1 2 4
M  V30 4 1 3 5 CFG=3
M  V30 5 1 3 6
M  V30 6 1 3 7
M  V30 7 1 4 8
M  V30 8 1 4 9 CFG=3
M  V30 9 1 6 10 CFG=1
M  V30 10 1 6 11
M  V30 11 1 8 12
M  V30 12 1 11 13
M  V30 13 2 12 14 CFG=2
M  V30 14 1 13 15 CFG=1
M  V30 15 1 13 16
M  V30 16 1 14 17
M  V30 17 1 16 18
M  V30 18 1 16 19
M  V30 19 1 17 20
M  V30 20 2 18 21
M  V30 21 1 18 22
M  V30 22 1 19 23 CFG=3
M  V30 23 1 19 24
M  V30 24 1 20 25 CFG=1
M  V30 25 1 20 26
M  V30 26 1 23 27 CFG=3
M  V30 27 1 24 28 CFG=1
M  V30 28 2 26 29
M  V30 29 1 28 30
M  V30 30 2 30 31
M  V30 31 1 30 32
M  V30 32 1 31 33
M  V30 33 2 32 34
M  V30 34 2 33 35
M  V30 35 1 11 10 CFG=1
M  V30 36 1 16 17 CFG=3
M  V30 37 1 22 24
M  V30 38 1 23 26
M  V30 39 1 34 35
M  V30 END BOND
M  V30 BEGIN COLLECTION
M  V30 MDLV30/STEABS ATOMS=(10 3 4 6 11 13 16 19 20 23 24)
M  V30 END COLLECTION
M  V30 END CTAB
M  END
>  <Compound>
Engleromycin

>  <Origin>
Xylaria karyophthora

>  <Reference>
Lambert C, Shao L, Zeng H, Surup F, Saetang P, Aime MC, Husbands DR, Rottner K, Stradal TEB, Stadler M. Cytochalasans produced by Xylaria karyophthora and their biological activities. Mycologia. 2023 May-Jun;115(3):277-287. doi: 10.1080/00275514.2023.2188868. Epub 2023 Apr 5. PMID: 37017575.

>  <Actin Disruption Activity (1h Treatment)>
++

>  <Reversibilty>
+

>  <Box ID>
not available

>  <Quantity>
available

>  <Cytotoxicity in L929 mouse fibroblasts [µM]>
1.9

>  <Synonyms>
compound 7
P9-2

>  <Subclass>
Cytochalasin

>  <Molecular Formula>
C28H35NO6

>  <Total Molweight>
481.587

>  <Smiles>
C[C@@H]([C@@H]([C@H](Cc1ccccc1)N1)[C@@](C([C@@H]2O)C=CC[C@H](C)C([C@@](C)([C@@H]3O[C@H]33)O)=O)([C@@H]3O)C1=O)C2=C

>  <Amino Acid>
Phenylalanine

>  <Cytotoxicity in L929 mouse Fibroblasts [µg/mL]>
0.9

>  <Cytotoxicity in KB3.1>


>  <Anti-Biofilm>
not tested

$$$$
Compound 68
Actelion Java MolfileCreator 2.0

  0  0  0  0  0  0              0 V3000
M  V30 BEGIN CTAB
M  V30 COUNTS 32 35 0 0 0
M  V30 BEGIN ATOM
M  V30 1 O 0.0 0.0 0.0 0
M  V30 2 C -0.0118 1.5173 0.0 0
M  V30 3 C 1.1498 0.6756 0.0 0
M  V30 4 C 0.0474 3.0346 0.0 0 CFG=2
M  V30 5 C 2.4419 1.4343 0.0 0
M  V30 6 C -0.6401 1.7069 0.0 0
M  V30 7 C 1.3632 3.734 0.0 0 CFG=1
M  V30 8 C -1.2328 3.8525 0.0 0
M  V30 9 C 3.485 0.3793 0.0 0 CFG=2
M  V30 10 O -0.6519 0.2133 0.0 0
M  V30 11 N -2.1574 1.6832 0.0 0
M  V30 12 C 2.6078 2.9397 0.0 0
M  V30 13 C 1.4224 5.2513 0.0 0 CFG=2
M  V30 14 C -1.1735 5.3698 0.0 0
M  V30 15 C -2.5486 3.1294 0.0 0 CFG=1
M  V30 16 C 4.9668 0.5452 0.0 0
M  V30 17 C 2.9635 -1.0313 0.0 0
M  V30 18 C 3.8762 3.7458 0.0 0
M  V30 19 O 2.7382 5.9507 0.0 0
M  V30 20 C 0.1422 6.0692 0.0 0
M  V30 21 C -2.4537 6.1878 0.0 0
M  V30 22 C -3.9473 3.7103 0.0 0
M  V30 23 C 5.761 1.8255 0.0 0 CFG=2
M  V30 24 C 5.2868 3.248 0.0 0
M  V30 25 C 0.2015 7.5747 0.0 0
M  V30 26 C -5.1446 2.8094 0.0 0
M  V30 27 C 7.2428 1.6595 0.0 0
M  V30 28 C -4.9549 1.3395 0.0 0
M  V30 29 C -6.5434 3.3902 0.0 0
M  V30 30 C -6.1522 0.4385 0.0 0
M  V30 31 C -7.7406 2.4893 0.0 0
M  V30 32 C -7.551 1.0194 0.0 0
M  V30 END ATOM
M  V30 BEGIN BOND
M  V30 1 2 1 2
M  V30 2 1 2 3
M  V30 3 1 4 2 CFG=1
M  V30 4 2 3 5
M  V30 5 1 4 6
M  V30 6 1 4 7
M  V30 7 1 4 8
M  V30 8 1 5 9
M  V30 9 2 6 10
M  V30 10 1 6 11
M  V30 11 1 7 12 CFG=3
M  V30 12 1 7 13
M  V30 13 1 8 14
M  V30 14 1 8 15
M  V30 15 1 9 16
M  V30 16 1 9 17 CFG=3
M  V30 17 2 12 18
M  V30 18 1 13 19 CFG=1
M  V30 19 1 13 20
M  V30 20 1 14 21
M  V30 21 1 15 22 CFG=1
M  V30 22 1 16 23
M  V30 23 1 18 24
M  V30 24 1 20 25
M  V30 25 1 22 26
M  V30 26 1 23 27 CFG=3
M  V30 27 2 26 28
M  V30 28 1 26 29
M  V30 29 1 28 30
M  V30 30 2 29 31
M  V30 31 2 30 32
M  V30 32 1 11 15
M  V30 33 2 14 20
M  V30 34 1 23 24
M  V30 35 1 31 32
M  V30 END BOND
M  V30 BEGIN COLLECTION
M  V30 MDLV30/STEABS ATOMS=(6 4 7 9 13 15 23)
M  V30 END COLLECTION
M  V30 END CTAB
M  END
>  <Compound>
Fragiformin C

>  <Origin>
Hypoxylon fragiforme

>  <Reference>
Kretz, R., Wendt, L., Wongkanoun, S., Luangsa-ard, J., Surup, F., Helaly, S., … Stradal, T. (2019). The Effect of Cytochalasans on the Actin Cytoskeleton of Eukaryotic Cells and Preliminary Structure–Activity Relationships. Biomolecules, 9(2), 73. doi:10.

>  <Actin Disruption Activity (1h Treatment)>
+

>  <Reversibilty>
+/-

>  <Box ID>
not available

>  <Quantity>
not available

>  <Cytotoxicity in L929 mouse fibroblasts [µM]>
not tested

>  <Synonyms>
compound 1

>  <Subclass>
Cytochalasin

>  <Molecular Formula>
C28H35NO3

>  <Total Molweight>
433.59

>  <Smiles>
C[C@H](C[C@H](C)/C=C1)C/C=C/[C@@H]([C@@H](C(C)=C(C)C2[C@H](Cc3ccccc3)NC3=O)O)[C@@]23C\1=O

>  <Amino Acid>
Phenylalanine

>  <Cytotoxicity in L929 mouse Fibroblasts [µg/mL]>
not tested

>  <Cytotoxicity in KB3.1>


>  <Anti-Biofilm>
not tested

$$$$
Compound 69
Actelion Java MolfileCreator 2.0

  0  0  0  0  0  0              0 V3000
M  V30 BEGIN CTAB
M  V30 COUNTS 33 37 0 0 0
M  V30 BEGIN ATOM
M  V30 1 O 0.0 0.0 0.0 0
M  V30 2 C -0.024 1.5382 0.0 0
M  V30 3 C 1.1296 0.709 0.0 0
M  V30 4 C 0.024 3.0765 0.0 0 CFG=2
M  V30 5 C 2.4155 1.4902 0.0 0
M  V30 6 C -0.685 1.7546 0.0 0
M  V30 7 C 1.3339 3.7976 0.0 0 CFG=1
M  V30 8 C -1.2738 3.9057 0.0 0 CFG=1
M  V30 9 C 3.4491 0.4446 0.0 0 CFG=2
M  V30 10 O -0.709 0.2643 0.0 0
M  V30 11 N -2.2232 1.7425 0.0 0
M  V30 12 C 2.5718 3.0164 0.0 0
M  V30 13 C 1.382 5.3359 0.0 0 CFG=2
M  V30 14 C -1.2258 5.444 0.0 0
M  V30 15 C -2.6078 3.1847 0.0 0 CFG=1
M  V30 16 O 4.1822 -0.8412 0.0 0
M  V30 17 C 4.9273 0.6249 0.0 0
M  V30 18 C 2.9083 -0.9614 0.0 0
M  V30 19 C 3.8336 3.8336 0.0 0
M  V30 20 O 1.5502 6.5617 0.0 0
M  V30 21 C 0.0841 6.1651 0.0 0
M  V30 22 C -2.5237 6.2733 0.0 0
M  V30 23 C -4.0259 3.7856 0.0 0
M  V30 24 C 5.7084 1.9228 0.0 0 CFG=2
M  V30 25 C 5.2397 3.3409 0.0 0
M  V30 26 C 0.1321 7.6914 0.0 0
M  V30 27 C -5.2397 2.8962 0.0 0
M  V30 28 C 7.1866 1.7666 0.0 0
M  V30 29 C -5.0595 1.4301 0.0 0
M  V30 30 C -6.6578 3.4971 0.0 0
M  V30 31 C -6.2733 0.5408 0.0 0
M  V30 32 C -7.8716 2.6078 0.0 0
M  V30 33 C -7.6914 1.1416 0.0 0
M  V30 END ATOM
M  V30 BEGIN BOND
M  V30 1 2 1 2
M  V30 2 1 2 3
M  V30 3 1 4 2 CFG=1
M  V30 4 2 3 5
M  V30 5 1 4 6
M  V30 6 1 4 7
M  V30 7 1 4 8
M  V30 8 1 5 9
M  V30 9 2 6 10
M  V30 10 1 6 11
M  V30 11 1 7 12 CFG=3
M  V30 12 1 7 13
M  V30 13 1 8 14 CFG=3
M  V30 14 1 8 15
M  V30 15 1 9 16 CFG=1
M  V30 16 1 9 17
M  V30 17 1 9 18
M  V30 18 2 12 19
M  V30 19 1 13 20 CFG=1
M  V30 20 1 13 21
M  V30 21 1 14 22
M  V30 22 1 15 23 CFG=1
M  V30 23 1 17 24
M  V30 24 1 19 25
M  V30 25 1 21 26
M  V30 26 1 23 27
M  V30 27 1 24 28 CFG=3
M  V30 28 2 27 29
M  V30 29 1 27 30
M  V30 30 1 29 31
M  V30 31 2 30 32
M  V30 32 2 31 33
M  V30 33 1 11 15
M  V30 34 2 14 21
M  V30 35 1 20 21
M  V30 36 1 24 25
M  V30 37 1 32 33
M  V30 END BOND
M  V30 BEGIN COLLECTION
M  V30 MDLV30/STEABS ATOMS=(7 4 7 8 9 13 15 24)
M  V30 END COLLECTION
M  V30 END CTAB
M  END
>  <Compound>
Fragiformin D

>  <Origin>
Hypoxylon fragiforme

>  <Reference>
Kretz, R., Wendt, L., Wongkanoun, S., Luangsa-ard, J., Surup, F., Helaly, S., … Stradal, T. (2019). The Effect of Cytochalasans on the Actin Cytoskeleton of Eukaryotic Cells and Preliminary Structure–Activity Relationships. Biomolecules, 9(2), 73. doi:10.

>  <Actin Disruption Activity (1h Treatment)>
+++

>  <Reversibilty>
-

>  <Box ID>
not available

>  <Quantity>
not available

>  <Cytotoxicity in L929 mouse fibroblasts [µM]>
not tested

>  <Synonyms>
compound 2

>  <Subclass>
Cytochalasin

>  <Molecular Formula>
C28H34NO4

>  <Total Molweight>
448.581

>  <Smiles>
C[C@H](C[C@](C)(/C=C1)O)C/C=C/[C@@H]([C@@H]2OC2(C)=C(C)C2[C@H](Cc3ccccc3)NC3=O)[C@@]23C\1=O

>  <Amino Acid>
Phenylalanine

>  <Cytotoxicity in L929 mouse Fibroblasts [µg/mL]>
not tested

>  <Cytotoxicity in KB3.1>


>  <Anti-Biofilm>
not tested

$$$$
Compound 70
Actelion Java MolfileCreator 2.0

  0  0  0  0  0  0              0 V3000
M  V30 BEGIN CTAB
M  V30 COUNTS 37 40 0 0 0
M  V30 BEGIN ATOM
M  V30 1 O 0.0 0.0 0.0 0
M  V30 2 C -0.9412 1.1765 0.0 0
M  V30 3 C -2.4025 0.8545 0.0 0 CFG=2
M  V30 4 C -0.3096 2.5264 0.0 0 CFG=2
M  V30 5 O -1.6719 -0.4706 0.0 0
M  V30 6 C -3.5791 1.7957 0.0 0
M  V30 7 C -3.5543 -0.099 0.0 0
M  V30 8 C -0.9659 3.8763 0.0 0
M  V30 9 C 1.1641 2.5388 0.0 0
M  V30 10 C -4.8918 1.0402 0.0 0
M  V30 11 C -2.4273 4.2231 0.0 0
M  V30 12 C -6.2046 1.8205 0.0 0 CFG=1
M  V30 13 C -3.6038 3.3066 0.0 0
M  V30 14 O -6.0436 0.2972 0.0 0
M  V30 15 C -6.217 3.319 0.0 0
M  V30 16 C -4.9166 4.0373 0.0 0 CFG=2
M  V30 17 C -7.2573 -0.5696 0.0 0
M  V30 18 C -6.5637 1.8824 0.0 0
M  V30 19 C -7.5049 4.0992 0.0 0
M  V30 20 C -4.9042 5.5358 0.0 0 CFG=2
M  V30 21 O -8.6319 0.0371 0.0 0
M  V30 22 C -7.1086 -2.031 0.0 0
M  V30 23 O -7.0839 0.3219 0.0 0
M  V30 24 N -8.0622 1.7709 0.0 0
M  V30 25 C -7.4926 5.5977 0.0 0 CFG=2
M  V30 26 C -8.6443 3.1332 0.0 0 CFG=1
M  V30 27 O -3.6162 6.2665 0.0 0
M  V30 28 C -6.1922 6.316 0.0 0
M  V30 29 C -8.7805 6.378 0.0 0
M  V30 30 C -10.1057 3.48 0.0 0
M  V30 31 C -6.1798 7.8146 0.0 0
M  V30 32 C -11.1336 2.4025 0.0 0
M  V30 33 C -12.595 2.7493 0.0 0
M  V30 34 C -10.7125 0.9907 0.0 0
M  V30 35 C -13.6229 1.6719 0.0 0
M  V30 36 C -11.7404 -0.0866 0.0 0
M  V30 37 C -13.2018 0.26 0.0 0
M  V30 END ATOM
M  V30 BEGIN BOND
M  V30 1 2 1 2
M  V30 2 1 2 3
M  V30 3 1 2 4
M  V30 4 1 3 5 CFG=3
M  V30 5 1 3 6
M  V30 6 1 3 7
M  V30 7 1 4 8
M  V30 8 1 4 9 CFG=3
M  V30 9 2 6 10
M  V30 10 1 8 11
M  V30 11 1 10 12
M  V30 12 2 11 13
M  V30 13 1 12 14 CFG=1
M  V30 14 1 12 15
M  V30 15 1 16 13 CFG=3
M  V30 16 1 14 17
M  V30 17 1 15 18
M  V30 18 1 15 19
M  V30 19 1 16 20
M  V30 20 2 17 21
M  V30 21 1 17 22
M  V30 22 2 18 23
M  V30 23 1 18 24
M  V30 24 1 19 25
M  V30 25 1 19 26
M  V30 26 1 20 27 CFG=1
M  V30 27 1 20 28
M  V30 28 1 25 29 CFG=1
M  V30 29 1 26 30 CFG=1
M  V30 30 2 28 31
M  V30 31 1 30 32
M  V30 32 2 32 33
M  V30 33 1 32 34
M  V30 34 1 33 35
M  V30 35 2 34 36
M  V30 36 2 35 37
M  V30 37 1 15 16
M  V30 38 1 24 26
M  V30 39 1 25 28
M  V30 40 1 36 37
M  V30 END BOND
M  V30 BEGIN COLLECTION
M  V30 MDLV30/STEABS ATOMS=(7 3 4 12 16 20 25 26)
M  V30 END COLLECTION
M  V30 END CTAB
M  END
>  <Compound>
Hypoxilin A

>  <Origin>
Xylaria sp.

>  <Reference>


>  <Actin Disruption Activity (1h Treatment)>
++

>  <Reversibilty>
+

>  <Box ID>
3C0110

>  <Quantity>
0.55 mg

>  <Cytotoxicity in L929 mouse fibroblasts [µM]>
0.14

>  <Synonyms>


>  <Subclass>
Cytochalasin

>  <Molecular Formula>
C30H37NO6

>  <Total Molweight>
507.625

>  <Smiles>
C[C@H](C([C@H](Cc1ccccc1)N1)C([C@H]([C@@H]2O)/C=C/C[C@H](C)C([C@@](C)(/C=C3)O)=O)([C@@H]\3OC(C)=O)C1=O)C2=C

>  <Amino Acid>
Phenylalanine

>  <Cytotoxicity in L929 mouse Fibroblasts [µg/mL]>
0.07 

>  <Cytotoxicity in KB3.1>


>  <Anti-Biofilm>
not tested

$$$$
Compound 71
Actelion Java MolfileCreator 2.0

  0  0  0  0  0  0              0 V3000
M  V30 BEGIN CTAB
M  V30 COUNTS 39 43 0 0 0
M  V30 BEGIN ATOM
M  V30 1 O 0.0 0.0 0.0 0
M  V30 2 C -1.0175 1.1609 0.0 0
M  V30 3 C -2.7231 0.8456 0.0 0 CFG=2
M  V30 4 C -0.5016 2.7374 0.0 0 CFG=2
M  V30 5 O -1.4618 -0.7309 0.0 0
M  V30 6 C -4.0417 1.6338 0.0 0 CFG=2
M  V30 7 C -2.7947 -0.5302 0.0 0
M  V30 8 C -1.6195 3.8267 0.0 0
M  V30 9 C 1.1035 2.8234 0.0 0
M  V30 10 O -4.1133 0.3583 0.0 0
M  V30 11 C -5.3602 0.9889 0.0 0 CFG=1
M  V30 12 C -2.8664 3.884 0.0 0
M  V30 13 C -6.3492 1.4762 0.0 0 CFG=1
M  V30 14 C -4.185 3.2391 0.0 0
M  V30 15 O -6.4208 -0.1289 0.0 0
M  V30 16 C -6.7505 3.3107 0.0 0 CFG=1
M  V30 17 C -5.5036 4.0273 0.0 0 CFG=2
M  V30 18 C -5.5322 -1.0319 0.0 0
M  V30 19 C -7.5531 1.5622 0.0 0
M  V30 20 C -8.069 4.099 0.0 0 CFG=1
M  V30 21 C -5.5752 5.5466 0.0 0 CFG=2
M  V30 22 O -4.2566 -0.7882 0.0 0
M  V30 23 C -6.2775 -2.1355 0.0 0
M  V30 24 O -7.6247 0.0 0.0 0
M  V30 25 N -9.23 2.0065 0.0 0
M  V30 26 C -8.1407 5.6182 0.0 0 CFG=1
M  V30 27 C -9.3876 3.454 0.0 0 CFG=1
M  V30 28 O -4.4 6.3348 0.0 0
M  V30 29 C -6.8938 6.3348 0.0 0 CFG=1
M  V30 30 O -8.2124 7.0371 0.0 0
M  V30 31 C -9.5596 5.6899 0.0 0
M  V30 32 C -10.7062 4.2423 0.0 0
M  V30 33 C -6.9654 7.7537 0.0 0
M  V30 34 C -12.0248 3.5974 0.0 0
M  V30 35 C -13.3433 4.3856 0.0 0
M  V30 36 C -12.0964 2.2215 0.0 0
M  V30 37 C -14.6619 3.7407 0.0 0
M  V30 38 C -13.415 1.5765 0.0 0
M  V30 39 C -14.7336 2.3648 0.0 0
M  V30 END ATOM
M  V30 BEGIN BOND
M  V30 1 2 1 2
M  V30 2 1 2 3
M  V30 3 1 2 4
M  V30 4 1 3 5 CFG=3
M  V30 5 1 3 6
M  V30 6 1 3 7
M  V30 7 1 4 8
M  V30 8 1 4 9 CFG=3
M  V30 9 1 6 10 CFG=1
M  V30 10 1 6 11
M  V30 11 1 8 12
M  V30 12 1 11 13
M  V30 13 2 12 14
M  V30 14 1 13 15 CFG=1
M  V30 15 1 13 16
M  V30 16 1 17 14 CFG=3
M  V30 17 1 15 18
M  V30 18 1 16 19 CFG=3
M  V30 19 1 16 20
M  V30 20 1 17 21
M  V30 21 2 18 22
M  V30 22 1 18 23
M  V30 23 2 19 24
M  V30 24 1 19 25
M  V30 25 1 20 26 CFG=3
M  V30 26 1 20 27
M  V30 27 1 21 28 CFG=1
M  V30 28 1 21 29
M  V30 29 1 26 30 CFG=3
M  V30 30 1 26 31
M  V30 31 1 27 32 CFG=1
M  V30 32 1 29 33 CFG=1
M  V30 33 1 32 34
M  V30 34 2 34 35
M  V30 35 1 34 36
M  V30 36 1 35 37
M  V30 37 2 36 38
M  V30 38 2 37 39
M  V30 39 1 11 10 CFG=1
M  V30 40 1 16 17
M  V30 41 1 25 27
M  V30 42 1 26 29
M  V30 43 1 38 39
M  V30 END BOND
M  V30 BEGIN COLLECTION
M  V30 MDLV30/STEABS ATOMS=(12 3 4 6 11 13 16 17 20 21 26 27 29)
M  V30 END COLLECTION
M  V30 END CTAB
M  END
>  <Compound>
Karyochalasin

>  <Origin>
Xylaria karyophthora

>  <Reference>
Lambert C, Shao L, Zeng H, Surup F, Saetang P, Aime MC, Husbands DR, Rottner K, Stradal TEB, Stadler M. Cytochalasans produced by Xylaria karyophthora and their biological activities. Mycologia. 2023 May-Jun;115(3):277-287. doi: 10.1080/00275514.2023.2188868. Epub 2023 Apr 5. PMID: 37017575.

>  <Actin Disruption Activity (1h Treatment)>
+

>  <Reversibilty>
not tested

>  <Box ID>
1C0029

>  <Quantity>
available

>  <Cytotoxicity in L929 mouse fibroblasts [µM]>
no inhibition

>  <Synonyms>
5-epi-Acetylcytochalasin S
compound 1
P6-1 NMR498/163

>  <Subclass>
Cytochalasin

>  <Molecular Formula>
C30H39NO8

>  <Total Molweight>
541.639

>  <Smiles>
C[C@@H]([C@H]([C@@H]([C@]([C@@H]1[C@H](Cc2ccccc2)N2)([C@@H]([C@@H]3O[C@H]3[C@@]3(C)O)OC(C)=O)C2=O)/C=C/C[C@H](C)C3=O)O)[C@@]1(C)O

>  <Amino Acid>
Phenylalanine

>  <Cytotoxicity in L929 mouse Fibroblasts [µg/mL]>
no inhibition

>  <Cytotoxicity in KB3.1>


>  <Anti-Biofilm>
-

$$$$
Compound 72
Actelion Java MolfileCreator 2.0

  0  0  0  0  0  0              0 V3000
M  V30 BEGIN CTAB
M  V30 COUNTS 33 37 0 0 0
M  V30 BEGIN ATOM
M  V30 1 O 0.0 0.0 0.0 0
M  V30 2 C -0.1489 1.7337 0.0 0
M  V30 3 C 1.1106 1.0158 0.0 0
M  V30 4 C -0.176 3.2372 0.0 0 CFG=2
M  V30 5 C 2.3703 1.7879 0.0 0
M  V30 6 C -0.5147 1.815 0.0 0
M  V30 7 C 1.0836 4.0093 0.0 0 CFG=1
M  V30 8 C -1.4899 4.0093 0.0 0 CFG=1
M  V30 9 C 3.4946 0.8939 0.0 0 CFG=1
M  V30 10 O -0.8939 0.3386 0.0 0
M  V30 11 N -2.0182 1.6931 0.0 0
M  V30 12 C 2.3432 3.2914 0.0 0
M  V30 13 C 1.0565 5.5128 0.0 0 CFG=2
M  V30 14 C -1.517 5.5128 0.0 0 CFG=1
M  V30 15 C -2.6141 3.0476 0.0 0 CFG=1
M  V30 16 O 4.4427 -0.3657 0.0 0
M  V30 17 C 4.9168 1.2596 0.0 0
M  V30 18 C 3.1288 -0.5282 0.0 0
M  V30 19 C 3.4675 4.2395 0.0 0
M  V30 20 O 1.1377 7.1111 0.0 0
M  V30 21 C -0.2573 6.2848 0.0 0 CFG=1
M  V30 22 C -2.8309 6.2848 0.0 0
M  V30 23 C -4.0905 3.3862 0.0 0
M  V30 24 C 5.5399 2.6141 0.0 0 CFG=2
M  V30 25 C 4.8897 3.928 0.0 0
M  V30 26 C -1.0429 7.5852 0.0 0
M  V30 27 C -5.1064 2.3161 0.0 0
M  V30 28 C 6.9892 2.6412 0.0 0
M  V30 29 C -6.5828 2.6548 0.0 0
M  V30 30 C -4.673 0.9346 0.0 0
M  V30 31 C -7.5987 1.5847 0.0 0
M  V30 32 C -5.6889 -0.1354 0.0 0
M  V30 33 C -7.1653 0.2031 0.0 0
M  V30 END ATOM
M  V30 BEGIN BOND
M  V30 1 2 1 2
M  V30 2 1 2 3
M  V30 3 1 4 2 CFG=1
M  V30 4 2 3 5
M  V30 5 1 4 6
M  V30 6 1 4 7
M  V30 7 1 4 8
M  V30 8 1 5 9
M  V30 9 2 6 10
M  V30 10 1 6 11
M  V30 11 1 7 12 CFG=3
M  V30 12 1 7 13
M  V30 13 1 8 14 CFG=3
M  V30 14 1 8 15
M  V30 15 1 9 16 CFG=3
M  V30 16 1 9 17
M  V30 17 1 9 18
M  V30 18 2 12 19
M  V30 19 1 13 20 CFG=1
M  V30 20 1 13 21
M  V30 21 1 14 22 CFG=3
M  V30 22 1 15 23 CFG=1
M  V30 23 1 17 24
M  V30 24 1 19 25
M  V30 25 1 21 26
M  V30 26 1 23 27
M  V30 27 1 24 28 CFG=3
M  V30 28 2 27 29
M  V30 29 1 27 30
M  V30 30 1 29 31
M  V30 31 2 30 32
M  V30 32 2 31 33
M  V30 33 1 11 15
M  V30 34 1 14 21
M  V30 35 1 21 20 CFG=1
M  V30 36 1 24 25
M  V30 37 1 32 33
M  V30 END BOND
M  V30 BEGIN COLLECTION
M  V30 MDLV30/STEABS ATOMS=(9 4 7 8 9 13 14 15 21 24)
M  V30 END COLLECTION
M  V30 END CTAB
M  END
>  <Compound>
New Cytochalasin

>  <Origin>
Daldinia eschscholtzii

>  <Reference>
Kretz, R., Wendt, L., Wongkanoun, S., Luangsa-ard, J., Surup, F., Helaly, S., … Stradal, T. (2019). The Effect of Cytochalasans on the Actin Cytoskeleton of Eukaryotic Cells and Preliminary Structure–Activity Relationships. Biomolecules, 9(2), 73. doi:10.

>  <Actin Disruption Activity (1h Treatment)>
+

>  <Reversibilty>
+/-

>  <Box ID>
not available

>  <Quantity>
not available

>  <Cytotoxicity in L929 mouse fibroblasts [µM]>
not tested

>  <Synonyms>
compound 17

>  <Subclass>
Cytochalasin

>  <Molecular Formula>
C28H35NO4

>  <Total Molweight>
449.589

>  <Smiles>
C[C@@H]([C@@H]([C@H](Cc1ccccc1)NC1=O)[C@@]11C(/C=C2)=O)[C@@]3(C)O[C@H]3[C@@H]1/C=C/C[C@H](C)C[C@]\2(C)O

>  <Amino Acid>
Phenylalanine

>  <Cytotoxicity in L929 mouse Fibroblasts [µg/mL]>
not tested

>  <Cytotoxicity in KB3.1>


>  <Anti-Biofilm>
not tested

$$$$
Compound 73
Actelion Java MolfileCreator 2.0

  0  0  0  0  0  0              0 V3000
M  V30 BEGIN CTAB
M  V30 COUNTS 35 39 0 0 0
M  V30 BEGIN ATOM
M  V30 1 O 0.0 0.0 0.0 0
M  V30 2 C -0.0151 1.5043 0.0 0
M  V30 3 O -1.322 2.2793 0.0 0
M  V30 4 C 1.2612 2.2793 0.0 0
M  V30 5 C -1.3372 3.7837 0.0 0 CFG=2
M  V30 6 C 2.2945 1.2612 0.0 0
M  V30 7 C -2.3249 1.869 0.0 0
M  V30 8 C -0.0607 4.5283 0.0 0 CFG=1
M  V30 9 C -2.6288 4.5435 0.0 0 CFG=1
M  V30 10 C 3.7533 1.2764 0.0 0 CFG=1
M  V30 11 O -2.3401 0.699 0.0 0
M  V30 12 N -3.6317 2.2945 0.0 0
M  V30 13 C 1.2004 3.7989 0.0 0
M  V30 14 C -0.0607 6.0326 0.0 0
M  V30 15 C -2.6288 6.0478 0.0 0
M  V30 16 C -3.7533 3.5709 0.0 0 CFG=1
M  V30 17 O 4.3003 -0.0607 0.0 0
M  V30 18 C 4.7714 2.3249 0.0 0
M  V30 19 C 3.0695 -0.0455 0.0 0
M  V30 20 C 2.2489 4.8474 0.0 0
M  V30 21 O 0.1975 7.7194 0.0 0
M  V30 22 C -1.3676 6.8076 0.0 0 CFG=1
M  V30 23 C -3.9356 6.8228 0.0 0
M  V30 24 C -5.2273 3.9052 0.0 0
M  V30 25 O 6.1086 1.7778 0.0 0
M  V30 26 C 4.7562 3.8141 0.0 0 CFG=2
M  V30 27 C 3.7077 4.8626 0.0 0
M  V30 28 C -1.3676 8.312 0.0 0
M  V30 29 C -6.2454 2.8264 0.0 0
M  V30 30 C 6.0934 4.3915 0.0 0
M  V30 31 C -7.7194 3.1607 0.0 0
M  V30 32 C -5.8047 1.4283 0.0 0
M  V30 33 C -8.7375 2.0818 0.0 0
M  V30 34 C -6.8228 0.3495 0.0 0
M  V30 35 C -8.2968 0.6838 0.0 0
M  V30 END ATOM
M  V30 BEGIN BOND
M  V30 1 2 1 2
M  V30 2 1 2 3
M  V30 3 1 2 4
M  V30 4 1 5 3 CFG=1
M  V30 5 2 4 6
M  V30 6 1 5 7
M  V30 7 1 5 8
M  V30 8 1 5 9
M  V30 9 1 6 10
M  V30 10 2 7 11
M  V30 11 1 7 12
M  V30 12 1 8 13 CFG=3
M  V30 13 1 8 14
M  V30 14 1 9 15 CFG=3
M  V30 15 1 9 16
M  V30 16 1 10 17 CFG=3
M  V30 17 1 10 18
M  V30 18 1 10 19
M  V30 19 2 13 20
M  V30 20 1 14 21
M  V30 21 1 14 22
M  V30 22 1 15 23
M  V30 23 1 16 24 CFG=1
M  V30 24 1 18 25
M  V30 25 1 18 26
M  V30 26 1 20 27
M  V30 27 1 22 28
M  V30 28 1 24 29
M  V30 29 1 26 30 CFG=3
M  V30 30 2 29 31
M  V30 31 1 29 32
M  V30 32 1 31 33
M  V30 33 2 32 34
M  V30 34 2 33 35
M  V30 35 1 12 16
M  V30 36 1 15 22
M  V30 37 1 22 21 CFG=1
M  V30 38 1 26 27
M  V30 39 1 34 35
M  V30 END BOND
M  V30 BEGIN COLLECTION
M  V30 MDLV30/STEABS ATOMS=(7 5 8 9 10 16 22 26)
M  V30 END COLLECTION
M  V30 END CTAB
M  END
>  <Compound>
New Cytochalasin 2

>  <Origin>
Nemania diffusa

>  <Reference>
Demir, Ö.; Schmidt, K.; Schulz, B.; Stradal, T.E.B.; Surup, F. Cytochalasins from the Ash Endophytic Fungus Nemania diffusa DSM 116299. Molecules 2025, 30, 957. https://doi.org/10.3390/molecules30040957

>  <Actin Disruption Activity (1h Treatment)>
+++

>  <Reversibilty>
-

>  <Box ID>
3C0116

>  <Quantity>
1.1 mg

>  <Cytotoxicity in L929 mouse fibroblasts [µM]>
23

>  <Synonyms>
compound 1

>  <Subclass>
Cytochalasin

>  <Molecular Formula>
C28H35NO6

>  <Total Molweight>
481.587

>  <Smiles>
CC([C@@H]([C@H](Cc1ccccc1)NC1=O)[C@@]11OC(/C=C/[C@@]2(C)O)=O)[C@@]3(C)OC3[C@@H]1/C=C/C[C@H](C)C2O

>  <Amino Acid>
Phenylalanine

>  <Cytotoxicity in L929 mouse Fibroblasts [µg/mL]>
11.1

>  <Cytotoxicity in KB3.1>


>  <Anti-Biofilm>
not tested

$$$$
Compound 74
Actelion Java MolfileCreator 2.0

  0  0  0  0  0  0              0 V3000
M  V30 BEGIN CTAB
M  V30 COUNTS 33 36 0 0 0
M  V30 BEGIN ATOM
M  V30 1 O 0.0 0.0 0.0 0
M  V30 2 C -0.0286 1.7218 0.0 0
M  V30 3 C 0.8752 1.3344 0.0 0
M  V30 4 C -0.3874 3.5297 0.0 0 CFG=2
M  V30 5 C 2.1092 2.0805 0.0 0
M  V30 6 C -1.1478 1.7218 0.0 0
M  V30 7 C 0.8465 4.2758 0.0 0 CFG=1
M  V30 8 C -1.6787 4.2758 0.0 0 CFG=1
M  V30 9 C 3.3432 1.3918 0.0 0 CFG=1
M  V30 10 O -1.1765 0.1004 0.0 0
M  V30 11 N -2.7979 2.1235 0.0 0
M  V30 12 C 2.0805 3.5871 0.0 0
M  V30 13 C 0.8178 5.7681 0.0 0 CFG=2
M  V30 14 C -1.7074 5.7681 0.0 0 CFG=1
M  V30 15 C -2.9701 3.5871 0.0 0 CFG=1
M  V30 16 C 4.9645 1.8079 0.0 0
M  V30 17 C 3.3145 -0.043 0.0 0
M  V30 18 C 3.3145 4.3332 0.0 0
M  V30 19 O 2.0518 6.5142 0.0 0
M  V30 20 C -0.4735 6.5142 0.0 0
M  V30 21 C -2.9988 6.5142 0.0 0
M  V30 22 C -4.2615 4.3332 0.0 0
M  V30 23 C 5.5241 3.3575 0.0 0 CFG=2
M  V30 24 C 4.4767 4.3763 0.0 0
M  V30 25 C -0.5021 8.0064 0.0 0
M  V30 26 C -5.5528 3.6445 0.0 0
M  V30 27 C 7.1886 3.4006 0.0 0
M  V30 28 C -6.8442 4.3906 0.0 0
M  V30 29 C -5.5815 2.2096 0.0 0
M  V30 30 C -8.1356 3.7019 0.0 0
M  V30 31 C -6.8729 1.5209 0.0 0
M  V30 32 C -8.1643 2.267 0.0 0
M  V30 33 O -9.4556 1.5783 0.0 0
M  V30 END ATOM
M  V30 BEGIN BOND
M  V30 1 2 1 2
M  V30 2 1 2 3
M  V30 3 1 4 2 CFG=1
M  V30 4 2 3 5
M  V30 5 1 4 6
M  V30 6 1 4 7
M  V30 7 1 4 8
M  V30 8 1 5 9
M  V30 9 2 6 10
M  V30 10 1 6 11
M  V30 11 1 7 12 CFG=3
M  V30 12 1 7 13
M  V30 13 1 8 14 CFG=3
M  V30 14 1 8 15
M  V30 15 1 9 16
M  V30 16 1 9 17 CFG=1
M  V30 17 2 12 18
M  V30 18 1 13 19 CFG=1
M  V30 19 1 13 20
M  V30 20 1 14 21 CFG=3
M  V30 21 1 15 22 CFG=1
M  V30 22 1 16 23
M  V30 23 1 18 24
M  V30 24 2 20 25
M  V30 25 1 22 26
M  V30 26 1 23 27 CFG=3
M  V30 27 2 26 28
M  V30 28 1 26 29
M  V30 29 1 28 30
M  V30 30 2 29 31
M  V30 31 2 30 32
M  V30 32 1 32 33
M  V30 33 1 11 15
M  V30 34 1 14 20
M  V30 35 1 23 24
M  V30 36 1 31 32
M  V30 END BOND
M  V30 BEGIN COLLECTION
M  V30 MDLV30/STEABS ATOMS=(8 4 7 8 9 13 14 15 23)
M  V30 END COLLECTION
M  V30 END CTAB
M  END
>  <Compound>
Phenochalasin C

>  <Origin>
Daldinia kretzschmarioides

>  <Reference>
Kretz, R., Wendt, L., Wongkanoun, S., Luangsa-ard, J., Surup, F., Helaly, S., … Stradal, T. (2019). The Effect of Cytochalasans on the Actin Cytoskeleton of Eukaryotic Cells and Preliminary Structure–Activity Relationships. Biomolecules, 9(2), 73. doi:10.

>  <Actin Disruption Activity (1h Treatment)>
++

>  <Reversibilty>
-

>  <Box ID>
not available

>  <Quantity>
not available

>  <Cytotoxicity in L929 mouse fibroblasts [µM]>
not tested

>  <Synonyms>
compound 22

>  <Subclass>
Cytochalasin

>  <Molecular Formula>
C28H35NO4

>  <Total Molweight>
449.589

>  <Smiles>
C[C@@H]([C@@H]([C@H](Cc(cc1)ccc1O)NC1=O)[C@@]1([C@H]([C@@H]1O)/C=C/C[C@H](C)C[C@@H](C)/C=C2)C\2=O)C1=C

>  <Amino Acid>
Tyrosine

>  <Cytotoxicity in L929 mouse Fibroblasts [µg/mL]>
not tested

>  <Cytotoxicity in KB3.1>


>  <Anti-Biofilm>
+

$$$$
Compound 75
Actelion Java MolfileCreator 2.0

  0  0  0  0  0  0              0 V3000
M  V30 BEGIN CTAB
M  V30 COUNTS 32 35 0 0 0
M  V30 BEGIN ATOM
M  V30 1 O 0.0 0.0 0.0 0
M  V30 2 C -0.0286 1.7206 0.0 0
M  V30 3 C 0.8603 1.3335 0.0 0
M  V30 4 C -0.3871 3.5274 0.0 0 CFG=2
M  V30 5 C 2.0935 2.0791 0.0 0
M  V30 6 C -1.1471 1.7206 0.0 0
M  V30 7 C 0.846 4.273 0.0 0 CFG=1
M  V30 8 C -1.6776 4.273 0.0 0 CFG=1
M  V30 9 C 3.3266 1.3908 0.0 0 CFG=1
M  V30 10 O -1.1758 0.1003 0.0 0
M  V30 11 N -2.7961 2.1221 0.0 0
M  V30 12 C 2.0791 3.5847 0.0 0
M  V30 13 C 0.8173 5.7643 0.0 0
M  V30 14 C -1.7063 5.7643 0.0 0 CFG=1
M  V30 15 C -2.9681 3.5847 0.0 0 CFG=1
M  V30 16 C 4.9469 1.8067 0.0 0
M  V30 17 C 3.2979 -0.043 0.0 0
M  V30 18 C 3.3123 4.3304 0.0 0
M  V30 19 C -0.4731 6.5099 0.0 0
M  V30 20 C -2.9968 6.5099 0.0 0
M  V30 21 C -4.2587 4.3304 0.0 0
M  V30 22 C 5.5062 3.3553 0.0 0 CFG=2
M  V30 23 C 4.4738 4.3734 0.0 0
M  V30 24 C -0.5018 8.0012 0.0 0
M  V30 25 C -5.5492 3.6421 0.0 0
M  V30 26 C 7.1695 3.3983 0.0 0
M  V30 27 C -6.8397 4.3877 0.0 0
M  V30 28 C -5.5779 2.2082 0.0 0
M  V30 29 C -8.1302 3.6994 0.0 0
M  V30 30 C -6.8684 1.5199 0.0 0
M  V30 31 C -8.1589 2.2655 0.0 0
M  V30 32 O -9.4494 1.5773 0.0 0
M  V30 END ATOM
M  V30 BEGIN BOND
M  V30 1 2 1 2
M  V30 2 1 2 3
M  V30 3 1 4 2 CFG=1
M  V30 4 2 3 5
M  V30 5 1 4 6
M  V30 6 1 4 7
M  V30 7 1 4 8
M  V30 8 1 5 9
M  V30 9 2 6 10
M  V30 10 1 6 11
M  V30 11 1 7 12 CFG=3
M  V30 12 1 7 13
M  V30 13 1 8 14 CFG=3
M  V30 14 1 8 15
M  V30 15 1 9 16
M  V30 16 1 9 17 CFG=1
M  V30 17 2 12 18
M  V30 18 2 13 19
M  V30 19 1 14 20 CFG=3
M  V30 20 1 15 21 CFG=1
M  V30 21 1 16 22
M  V30 22 1 18 23
M  V30 23 1 19 24
M  V30 24 1 21 25
M  V30 25 1 22 26 CFG=3
M  V30 26 2 25 27
M  V30 27 1 25 28
M  V30 28 1 27 29
M  V30 29 2 28 30
M  V30 30 2 29 31
M  V30 31 1 31 32
M  V30 32 1 11 15
M  V30 33 1 14 19
M  V30 34 1 22 23
M  V30 35 1 30 31
M  V30 END BOND
M  V30 BEGIN COLLECTION
M  V30 MDLV30/STEABS ATOMS=(7 4 7 8 9 14 15 22)
M  V30 END COLLECTION
M  V30 END CTAB
M  END
>  <Compound>
Phenochalasin D

>  <Origin>
Daldinia kretzschmarioides

>  <Reference>
Kretz, R., Wendt, L., Wongkanoun, S., Luangsa-ard, J., Surup, F., Helaly, S., … Stradal, T. (2019). The Effect of Cytochalasans on the Actin Cytoskeleton of Eukaryotic Cells and Preliminary Structure–Activity Relationships. Biomolecules, 9(2), 73. doi:10.

>  <Actin Disruption Activity (1h Treatment)>
-

>  <Reversibilty>
not tested

>  <Box ID>
not available

>  <Quantity>
not available

>  <Cytotoxicity in L929 mouse fibroblasts [µM]>
not tested

>  <Synonyms>
compound 22

>  <Subclass>
Cytochalasin

>  <Molecular Formula>
C28H35NO3

>  <Total Molweight>
433.59

>  <Smiles>
C[C@@H]([C@@H]([C@H](Cc(cc1)ccc1O)N1)[C@@]23C1=O)C(C)=C[C@@H]2/C=C/C[C@H](C)C[C@@H](C)/C=C/C3=O

>  <Amino Acid>
Tyrosine

>  <Cytotoxicity in L929 mouse Fibroblasts [µg/mL]>
not tested

>  <Cytotoxicity in KB3.1>


>  <Anti-Biofilm>
+

$$$$
Compound 76
Actelion Java MolfileCreator 2.0

  0  0  0  0  0  0              0 V3000
M  V30 BEGIN CTAB
M  V30 COUNTS 33 37 0 0 0
M  V30 BEGIN ATOM
M  V30 1 O 0.0 0.0 0.0 0
M  V30 2 C 0.1339 1.2297 0.0 0
M  V30 3 N -1.3879 1.0957 0.0 0
M  V30 4 C 0.4261 2.7272 0.0 0 CFG=1
M  V30 5 C -2.0332 2.4959 0.0 0 CFG=2
M  V30 6 C 0.7183 1.2784 0.0 0 CFG=2
M  V30 7 C 1.7045 3.5065 0.0 0 CFG=2
M  V30 8 C -0.9009 3.5065 0.0 0 CFG=2
M  V30 9 C -3.5308 2.8368 0.0 0
M  V30 10 O 0.8035 -0.0608 0.0 0
M  V30 11 C 2.1915 1.1444 0.0 0 CFG=2
M  V30 12 C 1.6802 5.0406 0.0 0 CFG=2
M  V30 13 C 2.8003 2.5324 0.0 0 CFG=2
M  V30 14 C -0.9253 5.0406 0.0 0 CFG=1
M  V30 15 C -4.5536 1.741 0.0 0
M  V30 16 C 2.7881 -0.2313 0.0 0
M  V30 17 O 2.9586 5.8198 0.0 0
M  V30 18 C 0.353 5.8198 0.0 0
M  V30 19 C 4.1518 3.1777 0.0 0 CFG=2
M  V30 20 C -2.2524 5.8198 0.0 0
M  V30 21 C -6.0511 2.0819 0.0 0
M  V30 22 C -4.1031 0.3287 0.0 0
M  V30 23 C 4.1396 -0.8279 0.0 0
M  V30 24 C 0.3287 7.3539 0.0 0
M  V30 25 O 4.1152 4.7362 0.0 0
M  V30 26 C 5.5276 2.5811 0.0 0
M  V30 27 C -7.0739 0.9862 0.0 0
M  V30 28 C -5.1258 -0.767 0.0 0
M  V30 29 C 5.5154 -0.1826 0.0 0
M  V30 30 C 4.1031 -2.3376 0.0 0
M  V30 31 C 6.1242 1.2297 0.0 0 CFG=1
M  V30 32 C -6.6234 -0.4261 0.0 0
M  V30 33 C 7.6339 1.2662 0.0 0
M  V30 END ATOM
M  V30 BEGIN BOND
M  V30 1 2 1 2
M  V30 2 1 2 3
M  V30 3 1 4 2 CFG=3
M  V30 4 1 3 5
M  V30 5 1 4 6
M  V30 6 1 4 7
M  V30 7 1 4 8
M  V30 8 1 5 9 CFG=1
M  V30 9 1 6 10 CFG=1
M  V30 10 1 6 11
M  V30 11 1 7 12 CFG=3
M  V30 12 1 7 13
M  V30 13 1 8 14 CFG=3
M  V30 14 1 9 15
M  V30 15 1 11 16 CFG=3
M  V30 16 1 12 17 CFG=1
M  V30 17 1 12 18
M  V30 18 1 13 19 CFG=1
M  V30 19 1 14 20 CFG=3
M  V30 20 2 15 21
M  V30 21 1 15 22
M  V30 22 2 16 23
M  V30 23 2 18 24
M  V30 24 1 19 25 CFG=3
M  V30 25 1 19 26
M  V30 26 1 21 27
M  V30 27 2 22 28
M  V30 28 1 23 29
M  V30 29 1 23 30
M  V30 30 1 26 31
M  V30 31 2 27 32
M  V30 32 1 31 33 CFG=3
M  V30 33 1 5 8
M  V30 34 1 11 13
M  V30 35 1 14 18
M  V30 36 1 28 32
M  V30 37 1 29 31
M  V30 END BOND
M  V30 BEGIN COLLECTION
M  V30 MDLV30/STEABS ATOMS=(11 4 5 6 7 8 11 12 13 14 19 31)
M  V30 END COLLECTION
M  V30 END CTAB
M  END
>  <Compound>
Phomopchalasin A

>  <Origin>
Diaporte ueckeri
semi-synthetic

>  <Reference>
Kemkuignou BM, Lambert C, Schmidt K, Schweizer L, Anoumedem EGM, Kouam SF, Stadler M, Stradal T, Marin-Felix Y. Unreported cytochalasins from an acid-mediated transformation of cytochalasin J isolated from Diaporthe cf. ueckeri. Fitoterapia. 2023 Apr;166:105434. doi: 10.1016/j.fitote.2023.105434. Epub 2023 Jan 19. PMID: 36681097.

>  <Actin Disruption Activity (1h Treatment)>
-

>  <Reversibilty>
+

>  <Box ID>
2C0086

>  <Quantity>
0.98 mg

>  <Cytotoxicity in L929 mouse fibroblasts [µM]>
no inhibition

>  <Synonyms>
compound 7

>  <Subclass>
Cytochalasin

>  <Molecular Formula>
C28H37NO4

>  <Total Molweight>
451.605

>  <Smiles>
C[C@@H]([C@@H]([C@H](Cc1ccccc1)N1)[C@@]([C@@H]([C@H]([C@@H]2/C=C(/C)\C[C@@H](C)C3)[C@@H]3O)[C@@H]3O)([C@@H]2O)C1=O)C3=C

>  <Amino Acid>
Phenylalanine

>  <Cytotoxicity in L929 mouse Fibroblasts [µg/mL]>
no inhibition

>  <Cytotoxicity in KB3.1>


>  <Anti-Biofilm>
not tested

$$$$
Compound 77
Actelion Java MolfileCreator 2.0

  0  0  0  0  0  0              0 V3000
M  V30 BEGIN CTAB
M  V30 COUNTS 36 40 0 0 0
M  V30 BEGIN ATOM
M  V30 1 O 0.0 0.0 0.0 0
M  V30 2 C 0.1348 1.2384 0.0 0
M  V30 3 N -1.3978 1.1035 0.0 0
M  V30 4 C 0.4291 2.7466 0.0 0 CFG=1
M  V30 5 C -2.0477 2.5136 0.0 0 CFG=2
M  V30 6 C 0.7234 1.2874 0.0 0 CFG=2
M  V30 7 C 1.7166 3.5313 0.0 0 CFG=2
M  V30 8 C -0.9073 3.5313 0.0 0 CFG=2
M  V30 9 C -3.5559 2.8569 0.0 0
M  V30 10 O 0.8092 -0.0613 0.0 0
M  V30 11 C 2.2071 1.1526 0.0 0 CFG=2
M  V30 12 C 1.6921 5.0763 0.0 0 CFG=2
M  V30 13 C 2.8202 2.5504 0.0 0 CFG=2
M  V30 14 C -0.9318 5.0763 0.0 0 CFG=1
M  V30 15 C -4.5859 1.7534 0.0 0
M  V30 16 C -0.3433 -0.8092 0.0 0
M  V30 17 C 2.8079 -0.2329 0.0 0
M  V30 18 O 2.9796 5.8611 0.0 0
M  V30 19 C 0.3555 5.8611 0.0 0
M  V30 20 C 4.1812 3.2003 0.0 0 CFG=2
M  V30 21 C -2.2684 5.8611 0.0 0
M  V30 22 C -6.0941 2.0967 0.0 0
M  V30 23 C -4.1322 0.331 0.0 0
M  V30 24 O -1.594 -0.1961 0.0 0
M  V30 25 C -0.2574 -2.1458 0.0 0
M  V30 26 C 4.169 -0.8338 0.0 0
M  V30 27 C 0.331 7.4061 0.0 0
M  V30 28 O 4.1444 4.7698 0.0 0
M  V30 29 C 5.5668 2.5994 0.0 0
M  V30 30 C -7.1241 0.9932 0.0 0
M  V30 31 C -5.1622 -0.7724 0.0 0
M  V30 32 C 5.5545 -0.1839 0.0 0
M  V30 33 C 4.1322 -2.3542 0.0 0
M  V30 34 C 6.1676 1.2384 0.0 0 CFG=1
M  V30 35 C -6.6704 -0.4291 0.0 0
M  V30 36 C 7.6881 1.2752 0.0 0
M  V30 END ATOM
M  V30 BEGIN BOND
M  V30 1 2 1 2
M  V30 2 1 2 3
M  V30 3 1 4 2 CFG=3
M  V30 4 1 3 5
M  V30 5 1 4 6
M  V30 6 1 4 7
M  V30 7 1 4 8
M  V30 8 1 5 9 CFG=1
M  V30 9 1 6 10 CFG=1
M  V30 10 1 6 11
M  V30 11 1 7 12 CFG=3
M  V30 12 1 7 13
M  V30 13 1 8 14 CFG=3
M  V30 14 1 9 15
M  V30 15 1 10 16
M  V30 16 1 11 17 CFG=3
M  V30 17 1 12 18 CFG=1
M  V30 18 1 12 19
M  V30 19 1 13 20 CFG=1
M  V30 20 1 14 21 CFG=3
M  V30 21 2 15 22
M  V30 22 1 15 23
M  V30 23 2 16 24
M  V30 24 1 16 25
M  V30 25 2 17 26
M  V30 26 2 19 27
M  V30 27 1 20 28 CFG=3
M  V30 28 1 20 29
M  V30 29 1 22 30
M  V30 30 2 23 31
M  V30 31 1 26 32
M  V30 32 1 26 33
M  V30 33 1 29 34
M  V30 34 2 30 35
M  V30 35 1 34 36 CFG=3
M  V30 36 1 5 8
M  V30 37 1 11 13
M  V30 38 1 14 19
M  V30 39 1 31 35
M  V30 40 1 32 34
M  V30 END BOND
M  V30 BEGIN COLLECTION
M  V30 MDLV30/STEABS ATOMS=(11 4 5 6 7 8 11 12 13 14 20 34)
M  V30 END COLLECTION
M  V30 END CTAB
M  END
>  <Compound>
Phomopchalasin D

>  <Origin>
Diaporte ueckeri
semi-synthetic

>  <Reference>
Kemkuignou BM, Lambert C, Schmidt K, Schweizer L, Anoumedem EGM, Kouam SF, Stadler M, Stradal T, Marin-Felix Y. Unreported cytochalasins from an acid-mediated transformation of cytochalasin J isolated from Diaporthe cf. ueckeri. Fitoterapia. 2023 Apr;166:105434. doi: 10.1016/j.fitote.2023.105434. Epub 2023 Jan 19. PMID: 36681097.

>  <Actin Disruption Activity (1h Treatment)>
+/-

>  <Reversibilty>
+

>  <Box ID>
2C0085

>  <Quantity>
0.74 mg

>  <Cytotoxicity in L929 mouse fibroblasts [µM]>
no inhibition

>  <Synonyms>
compound 6

>  <Subclass>
Cytochalasin

>  <Molecular Formula>
C30H39NO5

>  <Total Molweight>
493.642

>  <Smiles>
C[C@@H]([C@@H]([C@H](Cc1ccccc1)N1)[C@@]([C@@H]([C@H]([C@@H]2/C=C(/C)\C[C@@H](C)C3)[C@@H]3O)[C@@H]3O)([C@@H]2OC(C)=O)C1=O)C3=C

>  <Amino Acid>
Phenylalanine

>  <Cytotoxicity in L929 mouse Fibroblasts [µg/mL]>
no inhibition

>  <Cytotoxicity in KB3.1>


>  <Anti-Biofilm>
not tested

$$$$
Compound 78
Actelion Java MolfileCreator 2.0

  0  0  0  0  0  0              0 V3000
M  V30 BEGIN CTAB
M  V30 COUNTS 32 35 0 0 0
M  V30 BEGIN ATOM
M  V30 1 O 0.0 0.0 0.0 0
M  V30 2 C 0.4916 1.319 0.0 0
M  V30 3 N -1.0312 1.1871 0.0 0
M  V30 4 C 0.7794 2.8179 0.0 0 CFG=1
M  V30 5 C -1.6787 2.59 0.0 0 CFG=2
M  V30 6 C 0.7554 1.331 0.0 0 CFG=2
M  V30 7 C 2.0624 3.5853 0.0 0 CFG=1
M  V30 8 C -0.5515 3.5853 0.0 0 CFG=2
M  V30 9 C -3.1776 2.9258 0.0 0
M  V30 10 O 0.7314 -0.0239 0.0 0
M  V30 11 C 2.0384 0.5875 0.0 0
M  V30 12 C 3.3455 2.8538 0.0 0
M  V30 13 C 2.0384 5.1201 0.0 0
M  V30 14 C -0.5755 5.1201 0.0 0 CFG=1
M  V30 15 C -4.2088 1.8346 0.0 0
M  V30 16 C 3.3215 1.3669 0.0 0
M  V30 17 C 4.4966 3.8131 0.0 0
M  V30 18 C 0.7074 5.8996 0.0 0
M  V30 19 C -1.9065 5.8996 0.0 0
M  V30 20 C -5.7077 2.1703 0.0 0
M  V30 21 C -3.7651 0.4196 0.0 0
M  V30 22 C 4.4726 0.4556 0.0 0 CFG=2
M  V30 23 C 5.9475 3.5013 0.0 0
M  V30 24 C 0.6834 7.4344 0.0 0
M  V30 25 C -6.7389 1.0791 0.0 0
M  V30 26 C -4.7964 -0.6715 0.0 0
M  V30 27 O 5.5158 -0.5875 0.0 0
M  V30 28 C 5.9235 0.8153 0.0 0
M  V30 29 C 4.1129 -0.9952 0.0 0
M  V30 30 C 6.583 2.1703 0.0 0 CFG=1
M  V30 31 C -6.2953 -0.3357 0.0 0
M  V30 32 C 8.0699 2.1943 0.0 0
M  V30 END ATOM
M  V30 BEGIN BOND
M  V30 1 2 1 2
M  V30 2 1 2 3
M  V30 3 1 4 2 CFG=3
M  V30 4 1 3 5
M  V30 5 1 4 6
M  V30 6 1 4 7
M  V30 7 1 4 8
M  V30 8 1 5 9 CFG=1
M  V30 9 1 6 10 CFG=1
M  V30 10 1 6 11
M  V30 11 1 7 12 CFG=3
M  V30 12 1 7 13
M  V30 13 1 8 14 CFG=3
M  V30 14 1 9 15
M  V30 15 2 11 16
M  V30 16 2 12 17
M  V30 17 2 13 18
M  V30 18 1 14 19 CFG=3
M  V30 19 2 15 20
M  V30 20 1 15 21
M  V30 21 1 16 22
M  V30 22 1 17 23
M  V30 23 1 18 24
M  V30 24 1 20 25
M  V30 25 2 21 26
M  V30 26 1 22 27 CFG=1
M  V30 27 1 22 28
M  V30 28 1 22 29
M  V30 29 1 23 30
M  V30 30 2 25 31
M  V30 31 1 30 32 CFG=3
M  V30 32 1 5 8
M  V30 33 1 14 18
M  V30 34 1 26 31
M  V30 35 1 28 30
M  V30 END BOND
M  V30 BEGIN COLLECTION
M  V30 MDLV30/STEABS ATOMS=(8 4 5 6 7 8 14 22 30)
M  V30 END COLLECTION
M  V30 END CTAB
M  END
>  <Compound>
Phomopchalasin N

>  <Origin>
Diaporte ueckeri

>  <Reference>
Kemkuignou BM, Lambert C, Schmidt K, Schweizer L, Anoumedem EGM, Kouam SF, Stadler M, Stradal T, Marin-Felix Y. Unreported cytochalasins from an acid-mediated transformation of cytochalasin J isolated from Diaporthe cf. ueckeri. Fitoterapia. 2023 Apr;166:105434. doi: 10.1016/j.fitote.2023.105434. Epub 2023 Jan 19. PMID: 36681097.

>  <Actin Disruption Activity (1h Treatment)>
++

>  <Reversibilty>
+

>  <Box ID>
2C0083

>  <Quantity>
0.59 mg

>  <Cytotoxicity in L929 mouse fibroblasts [µM]>
10.8 

>  <Synonyms>
compound 11

>  <Subclass>
Cytochalasin

>  <Molecular Formula>
C28H37NO3

>  <Total Molweight>
435.606

>  <Smiles>
C[C@@H]([C@@H]([C@H](Cc1ccccc1)N1)C2([C@@H](/C=C3)O)C1=O)C(C)=C[C@@H]2/C=C/C[C@H](C)C[C@@]\3(C)O

>  <Amino Acid>
Phenylalanine

>  <Cytotoxicity in L929 mouse Fibroblasts [µg/mL]>
4.7

>  <Cytotoxicity in KB3.1>


>  <Anti-Biofilm>
not tested

$$$$
Compound 79
Actelion Java MolfileCreator 2.0

  0  0  0  0  0  0              0 V3000
M  V30 BEGIN CTAB
M  V30 COUNTS 34 37 0 0 0
M  V30 BEGIN ATOM
M  V30 1 O 0.0 0.0 0.0 0
M  V30 2 C -0.1095 1.327 0.0 0
M  V30 3 C 1.1687 0.5965 0.0 0
M  V30 4 C -0.146 2.8854 0.0 0 CFG=2
M  V30 5 C 2.4471 1.3879 0.0 0
M  V30 6 C -0.4991 1.4366 0.0 0
M  V30 7 C 1.1322 3.6768 0.0 0 CFG=1
M  V30 8 C -1.4975 3.6768 0.0 0 CFG=1
M  V30 9 C 3.5915 0.4869 0.0 0 CFG=1
M  V30 10 O -0.9861 0.3165 0.0 0
M  V30 11 N -2.0453 1.3027 0.0 0
M  V30 12 C 2.4106 2.9463 0.0 0
M  V30 13 C 1.0957 5.2352 0.0 0 CFG=2
M  V30 14 C -1.534 5.2352 0.0 0
M  V30 15 C -2.6541 2.7028 0.0 0 CFG=1
M  V30 16 O 4.3707 -0.7548 0.0 0
M  V30 17 C 5.0404 0.8765 0.0 0
M  V30 18 C 2.7028 -0.6087 0.0 0
M  V30 19 C 3.555 3.9203 0.0 0
M  V30 20 O 2.3741 6.0265 0.0 0
M  V30 21 C -0.2556 6.0143 0.0 0
M  V30 22 C -2.8854 6.0143 0.0 0
M  V30 23 C -4.1759 3.0558 0.0 0
M  V30 24 O 5.9413 -0.2678 0.0 0
M  V30 25 C 5.6734 2.2767 0.0 0 CFG=2
M  V30 26 C 5.0038 3.6159 0.0 0
M  V30 27 C -0.2921 7.5727 0.0 0
M  V30 28 C -5.223 1.9601 0.0 0
M  V30 29 C 7.1588 2.3132 0.0 0
M  V30 30 C -6.7448 2.3132 0.0 0
M  V30 31 C -4.7725 0.5478 0.0 0
M  V30 32 C -7.7919 1.2174 0.0 0
M  V30 33 C -5.8195 -0.5478 0.0 0
M  V30 34 C -7.3414 -0.1947 0.0 0
M  V30 END ATOM
M  V30 BEGIN BOND
M  V30 1 2 1 2
M  V30 2 1 2 3
M  V30 3 1 4 2 CFG=1
M  V30 4 2 3 5
M  V30 5 1 4 6
M  V30 6 1 4 7
M  V30 7 1 4 8
M  V30 8 1 5 9
M  V30 9 2 6 10
M  V30 10 1 6 11
M  V30 11 1 7 12 CFG=3
M  V30 12 1 7 13
M  V30 13 1 8 14 CFG=3
M  V30 14 1 8 15
M  V30 15 1 9 16 CFG=3
M  V30 16 1 9 17
M  V30 17 1 9 18
M  V30 18 2 12 19
M  V30 19 1 13 20 CFG=1
M  V30 20 1 13 21
M  V30 21 1 14 22
M  V30 22 1 15 23 CFG=1
M  V30 23 2 17 24
M  V30 24 1 17 25
M  V30 25 1 19 26
M  V30 26 1 21 27
M  V30 27 1 23 28
M  V30 28 1 25 29 CFG=3
M  V30 29 2 28 30
M  V30 30 1 28 31
M  V30 31 1 30 32
M  V30 32 2 31 33
M  V30 33 2 32 34
M  V30 34 1 11 15
M  V30 35 2 14 21
M  V30 36 1 25 26
M  V30 37 1 33 34
M  V30 END BOND
M  V30 BEGIN COLLECTION
M  V30 MDLV30/STEABS ATOMS=(7 4 7 8 9 13 15 25)
M  V30 END COLLECTION
M  V30 END CTAB
M  END
>  <Compound>
Pseudofuscochalasin A

>  <Origin>
Hypoxylon fuscum

>  <Reference>
Lambert C, Pourmoghaddam MJ, Cedeño-Sanchez M, Surup F, Khodaparast SA, Krisai-Greilhuber I, Voglmayr H, Stradal TEB, Stadler M. Resolution of the Hypoxylon fuscum Complex (Hypoxylaceae, Xylariales) and Discovery and Biological Characterization of Two of Its Prominent Secondary Metabolites. J Fungi (Basel). 2021 Feb 11;7(2):131. doi: 10.3390/jof7020131. PMID: 33670169; PMCID: PMC7916920.

>  <Actin Disruption Activity (1h Treatment)>
+++

>  <Reversibilty>
-

>  <Box ID>
2C0089

>  <Quantity>
available

>  <Cytotoxicity in L929 mouse fibroblasts [µM]>
not tested

>  <Synonyms>
compound 4

>  <Subclass>
Cytochalasin

>  <Molecular Formula>
C28H33NO5

>  <Total Molweight>
463.572

>  <Smiles>
C[C@@H](C/C=C/[C@@H]([C@@H](C(C)=C(C)C1C(Cc2ccccc2)NC2=O)O)[C@@]12C(/C=C/[C@@]1(C)O)=O)C1=O

>  <Amino Acid>
Phenylalanine

>  <Cytotoxicity in L929 mouse Fibroblasts [µg/mL]>
not tested

>  <Cytotoxicity in KB3.1>


>  <Anti-Biofilm>
not tested

$$$$
Compound 80
Actelion Java MolfileCreator 2.0

  0  0  0  0  0  0              0 V3000
M  V30 BEGIN CTAB
M  V30 COUNTS 38 41 0 0 0
M  V30 BEGIN ATOM
M  V30 1 O 0.0 0.0 0.0 0
M  V30 2 C 0.0616 1.2817 0.0 0
M  V30 3 N -1.5035 1.1831 0.0 0
M  V30 4 C 0.3204 2.8223 0.0 0 CFG=1
M  V30 5 C -2.206 2.6251 0.0 0 CFG=2
M  V30 6 C 0.2588 1.368 0.0 0 CFG=2
M  V30 7 C 1.5652 3.6233 0.0 0 CFG=1
M  V30 8 C -1.0475 3.6233 0.0 0 CFG=2
M  V30 9 C -3.7466 3.0071 0.0 0
M  V30 10 O 0.6901 0.0 0.0 0
M  V30 11 C 1.5035 0.6408 0.0 0
M  V30 12 C 2.8099 2.8962 0.0 0
M  V30 13 C 1.5035 5.2009 0.0 0 CFG=2
M  V30 14 C -1.1092 5.2009 0.0 0 CFG=1
M  V30 15 C -4.8065 1.9595 0.0 0
M  V30 16 C -0.3574 -1.0599 0.0 0
M  V30 17 C 2.7483 1.4419 0.0 0
M  V30 18 C 3.9191 3.8822 0.0 0
M  V30 19 O 2.7483 6.002 0.0 0
M  V30 20 C 0.1355 6.002 0.0 0
M  V30 21 C -2.4772 6.002 0.0 0
M  V30 22 C -6.347 2.3416 0.0 0
M  V30 23 C -4.3875 0.5792 0.0 0
M  V30 24 O -1.8979 -0.6778 0.0 0
M  V30 25 C 0.0739 -2.4279 0.0 0
M  V30 26 C 3.8575 0.5792 0.0 0 CFG=1
M  V30 27 C 5.3364 3.5987 0.0 0
M  V30 28 C 0.0739 7.5795 0.0 0
M  V30 29 C -7.4069 1.294 0.0 0
M  V30 30 C -5.4474 -0.4683 0.0 0
M  V30 31 O 3.4508 -0.838 0.0 0
M  V30 32 C 5.2748 0.9859 0.0 0
M  V30 33 C 4.5846 -0.7887 0.0 0
M  V30 34 C 5.9527 2.3046 0.0 0 CFG=1
M  V30 35 C -6.9879 -0.0862 0.0 0
M  V30 36 C 7.4069 2.3662 0.0 0
M  V30 37 O -8.0478 -1.1338 0.0 0
M  V30 38 C -7.6288 -2.5141 0.0 0
M  V30 END ATOM
M  V30 BEGIN BOND
M  V30 1 2 1 2
M  V30 2 1 2 3
M  V30 3 1 4 2 CFG=3
M  V30 4 1 3 5
M  V30 5 1 4 6
M  V30 6 1 4 7
M  V30 7 1 4 8
M  V30 8 1 5 9 CFG=1
M  V30 9 1 6 10 CFG=1
M  V30 10 1 6 11
M  V30 11 1 7 12 CFG=3
M  V30 12 1 7 13
M  V30 13 1 8 14 CFG=3
M  V30 14 1 9 15
M  V30 15 1 10 16
M  V30 16 2 11 17
M  V30 17 2 12 18
M  V30 18 1 13 19 CFG=1
M  V30 19 1 13 20
M  V30 20 1 14 21 CFG=3
M  V30 21 2 15 22
M  V30 22 1 15 23
M  V30 23 2 16 24
M  V30 24 1 16 25
M  V30 25 1 17 26
M  V30 26 1 18 27
M  V30 27 2 20 28
M  V30 28 1 22 29
M  V30 29 2 23 30
M  V30 30 1 26 31 CFG=3
M  V30 31 1 26 32
M  V30 32 1 26 33
M  V30 33 1 27 34
M  V30 34 2 29 35
M  V30 35 1 34 36 CFG=3
M  V30 36 1 35 37
M  V30 37 1 37 38
M  V30 38 1 5 8
M  V30 39 1 14 20
M  V30 40 1 30 35
M  V30 41 1 32 34
M  V30 END BOND
M  V30 BEGIN COLLECTION
M  V30 MDLV30/STEABS ATOMS=(9 4 5 6 7 8 13 14 26 34)
M  V30 END COLLECTION
M  V30 END CTAB
M  END
>  <Compound>
Pyrichalasin H

>  <Origin>
Magnaporthe grisea
mutasynthesis

>  <Reference>
Wang C, Becker K, Pfütze S, Kuhnert E, Stadler M, Cox RJ, Skellam E. Investigating the Function of Cryptic Cytochalasan Cytochrome P450 Monooxygenases Using Combinatorial Biosynthesis. Org Lett. 2019 Nov 1;21(21):8756-8760. doi: 10.1021/acs.orglett.9b0337
Wang C, Lambert C, Hauser M, Deuschmann A, Zeilinger C, Rottner K, Stradal TEB, Stadler M, Skellam EJ, Cox RJ. Diversely Functionalised Cytochalasins through Mutasynthesis and Semi-Synthesis. Chemistry. 2020 Oct 27;26(60):13578-13583. doi: 10.1002/chem.20

>  <Actin Disruption Activity (1h Treatment)>
++

>  <Reversibilty>
+/-

>  <Box ID>
1C0001

>  <Quantity>
1.1 mg

>  <Cytotoxicity in L929 mouse fibroblasts [µM]>
2.4

>  <Synonyms>
compound 1
compound 1a
WC001

>  <Subclass>
Pyrichalasin

>  <Molecular Formula>
C31H41NO6

>  <Total Molweight>
523.668

>  <Smiles>
C[C@@H]([C@@H]([C@H](Cc(cc1)ccc1OC)N1)[C@@]([C@H]([C@@H]2O)/C=C/C[C@H](C)C[C@@](C)(/C=C3)O)([C@@H]\3OC(C)=O)C1=O)C2=C

>  <Amino Acid>
tyrosine derivative
(p-methoxybenzyl group)

>  <Cytotoxicity in L929 mouse Fibroblasts [µg/mL]>
1.3

>  <Cytotoxicity in KB3.1>


>  <Anti-Biofilm>
not tested

$$$$
Compound 81
Actelion Java MolfileCreator 2.0

  0  0  0  0  0  0              0 V3000
M  V30 BEGIN CTAB
M  V30 COUNTS 31 34 0 0 0
M  V30 BEGIN ATOM
M  V30 1 O 0.0 0.0 0.0 0
M  V30 2 C -0.0361 1.5435 0.0 0
M  V30 3 C 1.0973 0.7355 0.0 0
M  V30 4 C 0.0 3.087 0.0 0 CFG=2
M  V30 5 C 2.3635 1.5073 0.0 0
M  V30 6 C -0.7235 1.7846 0.0 0
M  V30 7 C 1.2902 3.8226 0.0 0 CFG=1
M  V30 8 C -1.3023 3.919 0.0 0 CFG=1
M  V30 9 C 3.3764 0.4823 0.0 0 CFG=1
M  V30 10 O -0.7597 0.3135 0.0 0
M  V30 11 N -2.267 1.7846 0.0 0
M  V30 12 C 2.5082 3.0629 0.0 0
M  V30 13 C 1.3264 5.3661 0.0 0
M  V30 14 C -1.2661 5.4626 0.0 0 CFG=1
M  V30 15 C -2.6408 3.2076 0.0 0 CFG=1
M  V30 16 C 4.8355 0.6752 0.0 0
M  V30 17 C 2.8217 -0.9044 0.0 0
M  V30 18 C 3.7502 3.8829 0.0 0
M  V30 19 C 0.0241 6.1981 0.0 0
M  V30 20 C -2.5685 6.2946 0.0 0
M  V30 21 C -4.0637 3.8226 0.0 0
M  V30 22 C 5.5952 1.9776 0.0 0 CFG=2
M  V30 23 C 5.137 3.4005 0.0 0
M  V30 24 C 0.0602 7.7296 0.0 0
M  V30 25 C -5.2817 2.9543 0.0 0
M  V30 26 C 7.0543 1.8329 0.0 0
M  V30 27 C -5.1129 1.5073 0.0 0
M  V30 28 C -6.7046 3.5693 0.0 0
M  V30 29 C -6.3308 0.6391 0.0 0
M  V30 30 C -7.9225 2.7011 0.0 0
M  V30 31 C -7.7537 1.2541 0.0 0
M  V30 END ATOM
M  V30 BEGIN BOND
M  V30 1 2 1 2
M  V30 2 1 2 3
M  V30 3 1 4 2 CFG=1
M  V30 4 2 3 5
M  V30 5 1 4 6
M  V30 6 1 4 7
M  V30 7 1 4 8
M  V30 8 1 5 9
M  V30 9 2 6 10
M  V30 10 1 6 11
M  V30 11 1 7 12 CFG=3
M  V30 12 1 7 13
M  V30 13 1 8 14 CFG=3
M  V30 14 1 8 15
M  V30 15 1 9 16
M  V30 16 1 9 17 CFG=1
M  V30 17 2 12 18
M  V30 18 2 13 19
M  V30 19 1 14 20 CFG=3
M  V30 20 1 15 21 CFG=1
M  V30 21 1 16 22
M  V30 22 1 18 23
M  V30 23 1 19 24
M  V30 24 1 21 25
M  V30 25 1 22 26 CFG=3
M  V30 26 2 25 27
M  V30 27 1 25 28
M  V30 28 1 27 29
M  V30 29 2 28 30
M  V30 30 2 29 31
M  V30 31 1 11 15
M  V30 32 1 14 19
M  V30 33 1 22 23
M  V30 34 1 30 31
M  V30 END BOND
M  V30 BEGIN COLLECTION
M  V30 MDLV30/STEABS ATOMS=(7 4 7 8 9 14 15 22)
M  V30 END COLLECTION
M  V30 END CTAB
M  END
>  <Compound>
Saccalasin A

>  <Origin>
Daldinia sacchari

>  <Reference>
Kretz, R., Wendt, L., Wongkanoun, S., Luangsa-ard, J., Surup, F., Helaly, S., … Stradal, T. (2019). The Effect of Cytochalasans on the Actin Cytoskeleton of Eukaryotic Cells and Preliminary Structure–Activity Relationships. Biomolecules, 9(2), 73. doi:10.

>  <Actin Disruption Activity (1h Treatment)>
-

>  <Reversibilty>
not tested

>  <Box ID>
not available

>  <Quantity>
not available

>  <Cytotoxicity in L929 mouse fibroblasts [µM]>
not tested

>  <Synonyms>
compound 3

>  <Subclass>
Cytochalasin

>  <Molecular Formula>
C28H35NO2

>  <Total Molweight>
417.591

>  <Smiles>
C[C@@H](C([C@H](Cc1ccccc1)N1)[C@@]23C1=O)C(C)=C[C@@H]2/C=C/C[C@H](C)C[C@@H](C)/C=C/C3=O

>  <Amino Acid>
Phenylalanine

>  <Cytotoxicity in L929 mouse Fibroblasts [µg/mL]>
not tested

>  <Cytotoxicity in KB3.1>


>  <Anti-Biofilm>
+

$$$$
Compound 82
Actelion Java MolfileCreator 2.0

  0  0  0  0  0  0              0 V3000
M  V30 BEGIN CTAB
M  V30 COUNTS 37 40 0 0 0
M  V30 BEGIN ATOM
M  V30 1 O 0.0 0.0 0.0 0
M  V30 2 C 0.1362 1.5853 0.0 0
M  V30 3 C 1.3871 0.8174 0.0 0
M  V30 4 C 0.161 3.1087 0.0 0 CFG=2
M  V30 5 C 1.0899 -0.6316 0.0 0
M  V30 6 C -0.2229 1.672 0.0 0
M  V30 7 C 1.4614 3.8518 0.0 0 CFG=1
M  V30 8 C -1.1394 3.9137 0.0 0 CFG=1
M  V30 9 C 2.0807 -1.7215 0.0 0 CFG=2
M  V30 10 O -0.8545 0.2848 0.0 0
M  V30 11 N -1.7463 1.5853 0.0 0
M  V30 12 C 2.7123 3.0839 0.0 0
M  V30 13 C 1.4862 5.3752 0.0 0 CFG=2
M  V30 14 C -1.1146 5.4371 0.0 0 CFG=1
M  V30 15 C -2.3036 2.9724 0.0 0 CFG=1
M  V30 16 O 1.4738 -3.0963 0.0 0
M  V30 17 C 3.5669 -1.6224 0.0 0
M  V30 18 C 4.0128 3.827 0.0 0
M  V30 19 O 2.7866 6.1183 0.0 0
M  V30 20 C 0.1857 6.1802 0.0 0
M  V30 21 C -2.4151 6.2421 0.0 0
M  V30 22 C -3.7898 3.3564 0.0 0
M  V30 23 C 2.3655 -4.2729 0.0 0
M  V30 24 C 4.4215 -0.3839 0.0 0
M  V30 25 C 5.2637 3.0591 0.0 0
M  V30 26 C 0.2105 7.7036 0.0 0
M  V30 27 C -4.855 2.3036 0.0 0
M  V30 28 O 1.7587 -5.6476 0.0 0
M  V30 29 C 3.8394 -4.0499 0.0 0
M  V30 30 C 3.8394 0.8669 0.0 0
M  V30 31 C 5.1894 1.5853 0.0 0 CFG=1
M  V30 32 C -6.3412 2.6876 0.0 0
M  V30 33 C -4.4586 0.8917 0.0 0
M  V30 34 C 6.4403 0.8174 0.0 0
M  V30 35 C -7.4063 1.6348 0.0 0
M  V30 36 C -5.5238 -0.161 0.0 0
M  V30 37 C -7.01 0.2229 0.0 0
M  V30 END ATOM
M  V30 BEGIN BOND
M  V30 1 2 1 2
M  V30 2 1 2 3
M  V30 3 1 4 2 CFG=1
M  V30 4 2 3 5
M  V30 5 1 4 6
M  V30 6 1 4 7
M  V30 7 1 4 8
M  V30 8 1 5 9
M  V30 9 2 6 10
M  V30 10 1 6 11
M  V30 11 1 7 12 CFG=3
M  V30 12 1 7 13
M  V30 13 1 8 14 CFG=3
M  V30 14 1 8 15
M  V30 15 1 9 16 CFG=1
M  V30 16 1 9 17
M  V30 17 2 12 18 CFG=2
M  V30 18 1 13 19 CFG=1
M  V30 19 1 13 20
M  V30 20 1 14 21 CFG=3
M  V30 21 1 15 22 CFG=1
M  V30 22 1 16 23
M  V30 23 1 17 24
M  V30 24 1 18 25
M  V30 25 2 20 26
M  V30 26 1 22 27
M  V30 27 2 23 28
M  V30 28 1 23 29
M  V30 29 1 24 30
M  V30 30 1 25 31
M  V30 31 2 27 32
M  V30 32 1 27 33
M  V30 33 1 31 34 CFG=3
M  V30 34 1 32 35
M  V30 35 2 33 36
M  V30 36 2 35 37
M  V30 37 1 11 15
M  V30 38 1 14 20
M  V30 39 1 30 31
M  V30 40 1 36 37
M  V30 END BOND
M  V30 BEGIN COLLECTION
M  V30 MDLV30/STEABS ATOMS=(8 4 7 8 9 13 14 15 31)
M  V30 END COLLECTION
M  V30 END CTAB
M  END
>  <Compound>
Triseptatin A

>  <Origin>
Sparticola triseptata

>  <Reference>
Garcia, K.Y.M.; Quimque, M.T.J.; Lambert, C.; Schmidt, K.; Primahana, G.; Stradal, T.E.B.; Ratzenböck, A.; Dahse, H.-M.; Phukhamsakda, C.; Stadler, M.; Surup, F.; Macabeo, A.P.G. Antiproliferative and Cytotoxic Cytochalasins from Sparticola triseptata Inh

>  <Actin Disruption Activity (1h Treatment)>
++

>  <Reversibilty>
+

>  <Box ID>
2C0090

>  <Quantity>
0.1 mg

>  <Cytotoxicity in L929 mouse fibroblasts [µM]>
4.2

>  <Synonyms>
compound 1

>  <Subclass>
Cytochalasin

>  <Molecular Formula>
C31H39NO5

>  <Total Molweight>
505.653

>  <Smiles>
C[C@@H](C(C(Cc1ccccc1)NC1=O)[C@@]1(C([C@@H]1O)C=CC[C@H](C)CCC[C@H](/C=C2)OC(C)=O)C\2=O)C1=C

>  <Amino Acid>
Phenylalanine

>  <Cytotoxicity in L929 mouse Fibroblasts [µg/mL]>
2.1

>  <Cytotoxicity in KB3.1>


>  <Anti-Biofilm>
not tested

$$$$

Actelion Java MolfileCreator 2.0

  0  0  0  0  0  0              0 V3000
M  V30 BEGIN CTAB
M  V30 COUNTS 0 0 0 0 0
M  V30 BEGIN ATOM
M  V30 END ATOM
M  V30 BEGIN BOND
M  V30 END BOND
M  V30 END CTAB
M  END
>  <Compound>


>  <Origin>


>  <Reference>


>  <Actin Disruption Activity (1h Treatment)>


>  <Reversibilty>


>  <Box ID>


>  <Quantity>


>  <Cytotoxicity in L929 mouse fibroblasts [µM]>


>  <Synonyms>


>  <Subclass>


>  <Molecular Formula>


>  <Total Molweight>


>  <Smiles>


>  <Amino Acid>


>  <Cytotoxicity in L929 mouse Fibroblasts [µg/mL]>


>  <Cytotoxicity in KB3.1>


>  <Anti-Biofilm>


$$$$

Actelion Java MolfileCreator 2.0

  0  0  0  0  0  0              0 V3000
M  V30 BEGIN CTAB
M  V30 COUNTS 0 0 0 0 0
M  V30 BEGIN ATOM
M  V30 END ATOM
M  V30 BEGIN BOND
M  V30 END BOND
M  V30 END CTAB
M  END
>  <Compound>


>  <Origin>


>  <Reference>


>  <Actin Disruption Activity (1h Treatment)>


>  <Reversibilty>


>  <Box ID>


>  <Quantity>


>  <Cytotoxicity in L929 mouse fibroblasts [µM]>


>  <Synonyms>


>  <Subclass>


>  <Molecular Formula>


>  <Total Molweight>


>  <Smiles>


>  <Amino Acid>


>  <Cytotoxicity in L929 mouse Fibroblasts [µg/mL]>


>  <Cytotoxicity in KB3.1>


>  <Anti-Biofilm>


$$$$

Actelion Java MolfileCreator 2.0

  0  0  0  0  0  0              0 V3000
M  V30 BEGIN CTAB
M  V30 COUNTS 0 0 0 0 0
M  V30 BEGIN ATOM
M  V30 END ATOM
M  V30 BEGIN BOND
M  V30 END BOND
M  V30 END CTAB
M  END
>  <Compound>


>  <Origin>


>  <Reference>


>  <Actin Disruption Activity (1h Treatment)>


>  <Reversibilty>


>  <Box ID>


>  <Quantity>


>  <Cytotoxicity in L929 mouse fibroblasts [µM]>


>  <Synonyms>


>  <Subclass>


>  <Molecular Formula>


>  <Total Molweight>


>  <Smiles>


>  <Amino Acid>


>  <Cytotoxicity in L929 mouse Fibroblasts [µg/mL]>


>  <Cytotoxicity in KB3.1>


>  <Anti-Biofilm>


$$$$

Actelion Java MolfileCreator 2.0

  0  0  0  0  0  0              0 V3000
M  V30 BEGIN CTAB
M  V30 COUNTS 0 0 0 0 0
M  V30 BEGIN ATOM
M  V30 END ATOM
M  V30 BEGIN BOND
M  V30 END BOND
M  V30 END CTAB
M  END
>  <Compound>


>  <Origin>


>  <Reference>


>  <Actin Disruption Activity (1h Treatment)>


>  <Reversibilty>


>  <Box ID>


>  <Quantity>


>  <Cytotoxicity in L929 mouse fibroblasts [µM]>


>  <Synonyms>


>  <Subclass>


>  <Molecular Formula>


>  <Total Molweight>


>  <Smiles>


>  <Amino Acid>


>  <Cytotoxicity in L929 mouse Fibroblasts [µg/mL]>


>  <Cytotoxicity in KB3.1>


>  <Anti-Biofilm>


$$$$

Actelion Java MolfileCreator 2.0

  0  0  0  0  0  0              0 V3000
M  V30 BEGIN CTAB
M  V30 COUNTS 0 0 0 0 0
M  V30 BEGIN ATOM
M  V30 END ATOM
M  V30 BEGIN BOND
M  V30 END BOND
M  V30 END CTAB
M  END
>  <Compound>


>  <Origin>


>  <Reference>


>  <Actin Disruption Activity (1h Treatment)>


>  <Reversibilty>


>  <Box ID>


>  <Quantity>


>  <Cytotoxicity in L929 mouse fibroblasts [µM]>


>  <Synonyms>


>  <Subclass>


>  <Molecular Formula>


>  <Total Molweight>


>  <Smiles>


>  <Amino Acid>


>  <Cytotoxicity in L929 mouse Fibroblasts [µg/mL]>


>  <Cytotoxicity in KB3.1>


>  <Anti-Biofilm>


$$$$

Actelion Java MolfileCreator 2.0

  0  0  0  0  0  0              0 V3000
M  V30 BEGIN CTAB
M  V30 COUNTS 0 0 0 0 0
M  V30 BEGIN ATOM
M  V30 END ATOM
M  V30 BEGIN BOND
M  V30 END BOND
M  V30 END CTAB
M  END
>  <Compound>


>  <Origin>


>  <Reference>


>  <Actin Disruption Activity (1h Treatment)>


>  <Reversibilty>


>  <Box ID>


>  <Quantity>


>  <Cytotoxicity in L929 mouse fibroblasts [µM]>


>  <Synonyms>


>  <Subclass>


>  <Molecular Formula>


>  <Total Molweight>


>  <Smiles>


>  <Amino Acid>


>  <Cytotoxicity in L929 mouse Fibroblasts [µg/mL]>


>  <Cytotoxicity in KB3.1>


>  <Anti-Biofilm>


$$$$

Actelion Java MolfileCreator 2.0

  0  0  0  0  0  0              0 V3000
M  V30 BEGIN CTAB
M  V30 COUNTS 0 0 0 0 0
M  V30 BEGIN ATOM
M  V30 END ATOM
M  V30 BEGIN BOND
M  V30 END BOND
M  V30 END CTAB
M  END
>  <Compound>


>  <Origin>


>  <Reference>


>  <Actin Disruption Activity (1h Treatment)>


>  <Reversibilty>


>  <Box ID>


>  <Quantity>


>  <Cytotoxicity in L929 mouse fibroblasts [µM]>


>  <Synonyms>


>  <Subclass>


>  <Molecular Formula>


>  <Total Molweight>


>  <Smiles>


>  <Amino Acid>


>  <Cytotoxicity in L929 mouse Fibroblasts [µg/mL]>


>  <Cytotoxicity in KB3.1>


>  <Anti-Biofilm>


$$$$

Actelion Java MolfileCreator 2.0

  0  0  0  0  0  0              0 V3000
M  V30 BEGIN CTAB
M  V30 COUNTS 0 0 0 0 0
M  V30 BEGIN ATOM
M  V30 END ATOM
M  V30 BEGIN BOND
M  V30 END BOND
M  V30 END CTAB
M  END
>  <Compound>


>  <Origin>


>  <Reference>


>  <Actin Disruption Activity (1h Treatment)>


>  <Reversibilty>


>  <Box ID>


>  <Quantity>


>  <Cytotoxicity in L929 mouse fibroblasts [µM]>


>  <Synonyms>


>  <Subclass>


>  <Molecular Formula>


>  <Total Molweight>


>  <Smiles>


>  <Amino Acid>


>  <Cytotoxicity in L929 mouse Fibroblasts [µg/mL]>


>  <Cytotoxicity in KB3.1>


>  <Anti-Biofilm>


$$$$

Actelion Java MolfileCreator 2.0

  0  0  0  0  0  0              0 V3000
M  V30 BEGIN CTAB
M  V30 COUNTS 0 0 0 0 0
M  V30 BEGIN ATOM
M  V30 END ATOM
M  V30 BEGIN BOND
M  V30 END BOND
M  V30 END CTAB
M  END
>  <Compound>


>  <Origin>


>  <Reference>


>  <Actin Disruption Activity (1h Treatment)>


>  <Reversibilty>


>  <Box ID>


>  <Quantity>


>  <Cytotoxicity in L929 mouse fibroblasts [µM]>


>  <Synonyms>


>  <Subclass>


>  <Molecular Formula>


>  <Total Molweight>


>  <Smiles>


>  <Amino Acid>


>  <Cytotoxicity in L929 mouse Fibroblasts [µg/mL]>


>  <Cytotoxicity in KB3.1>


>  <Anti-Biofilm>


$$$$

Actelion Java MolfileCreator 2.0

  0  0  0  0  0  0              0 V3000
M  V30 BEGIN CTAB
M  V30 COUNTS 0 0 0 0 0
M  V30 BEGIN ATOM
M  V30 END ATOM
M  V30 BEGIN BOND
M  V30 END BOND
M  V30 END CTAB
M  END
>  <Compound>


>  <Origin>


>  <Reference>


>  <Actin Disruption Activity (1h Treatment)>


>  <Reversibilty>


>  <Box ID>


>  <Quantity>


>  <Cytotoxicity in L929 mouse fibroblasts [µM]>


>  <Synonyms>


>  <Subclass>


>  <Molecular Formula>


>  <Total Molweight>


>  <Smiles>


>  <Amino Acid>


>  <Cytotoxicity in L929 mouse Fibroblasts [µg/mL]>


>  <Cytotoxicity in KB3.1>


>  <Anti-Biofilm>


$$$$

Actelion Java MolfileCreator 2.0

  0  0  0  0  0  0              0 V3000
M  V30 BEGIN CTAB
M  V30 COUNTS 0 0 0 0 0
M  V30 BEGIN ATOM
M  V30 END ATOM
M  V30 BEGIN BOND
M  V30 END BOND
M  V30 END CTAB
M  END
>  <Compound>


>  <Origin>


>  <Reference>


>  <Actin Disruption Activity (1h Treatment)>


>  <Reversibilty>


>  <Box ID>


>  <Quantity>


>  <Cytotoxicity in L929 mouse fibroblasts [µM]>


>  <Synonyms>


>  <Subclass>


>  <Molecular Formula>


>  <Total Molweight>


>  <Smiles>


>  <Amino Acid>


>  <Cytotoxicity in L929 mouse Fibroblasts [µg/mL]>


>  <Cytotoxicity in KB3.1>


>  <Anti-Biofilm>


$$$$

Actelion Java MolfileCreator 2.0

  0  0  0  0  0  0              0 V3000
M  V30 BEGIN CTAB
M  V30 COUNTS 0 0 0 0 0
M  V30 BEGIN ATOM
M  V30 END ATOM
M  V30 BEGIN BOND
M  V30 END BOND
M  V30 END CTAB
M  END
>  <Compound>


>  <Origin>


>  <Reference>


>  <Actin Disruption Activity (1h Treatment)>


>  <Reversibilty>


>  <Box ID>


>  <Quantity>


>  <Cytotoxicity in L929 mouse fibroblasts [µM]>


>  <Synonyms>


>  <Subclass>


>  <Molecular Formula>


>  <Total Molweight>


>  <Smiles>


>  <Amino Acid>


>  <Cytotoxicity in L929 mouse Fibroblasts [µg/mL]>


>  <Cytotoxicity in KB3.1>


>  <Anti-Biofilm>


$$$$

Actelion Java MolfileCreator 2.0

  0  0  0  0  0  0              0 V3000
M  V30 BEGIN CTAB
M  V30 COUNTS 0 0 0 0 0
M  V30 BEGIN ATOM
M  V30 END ATOM
M  V30 BEGIN BOND
M  V30 END BOND
M  V30 END CTAB
M  END
>  <Compound>


>  <Origin>


>  <Reference>


>  <Actin Disruption Activity (1h Treatment)>


>  <Reversibilty>


>  <Box ID>


>  <Quantity>


>  <Cytotoxicity in L929 mouse fibroblasts [µM]>


>  <Synonyms>


>  <Subclass>


>  <Molecular Formula>


>  <Total Molweight>


>  <Smiles>


>  <Amino Acid>


>  <Cytotoxicity in L929 mouse Fibroblasts [µg/mL]>


>  <Cytotoxicity in KB3.1>


>  <Anti-Biofilm>


$$$$

Actelion Java MolfileCreator 2.0

  0  0  0  0  0  0              0 V3000
M  V30 BEGIN CTAB
M  V30 COUNTS 0 0 0 0 0
M  V30 BEGIN ATOM
M  V30 END ATOM
M  V30 BEGIN BOND
M  V30 END BOND
M  V30 END CTAB
M  END
>  <Compound>


>  <Origin>


>  <Reference>


>  <Actin Disruption Activity (1h Treatment)>


>  <Reversibilty>


>  <Box ID>


>  <Quantity>


>  <Cytotoxicity in L929 mouse fibroblasts [µM]>


>  <Synonyms>


>  <Subclass>


>  <Molecular Formula>


>  <Total Molweight>


>  <Smiles>


>  <Amino Acid>


>  <Cytotoxicity in L929 mouse Fibroblasts [µg/mL]>


>  <Cytotoxicity in KB3.1>


>  <Anti-Biofilm>


$$$$

Actelion Java MolfileCreator 2.0

  0  0  0  0  0  0              0 V3000
M  V30 BEGIN CTAB
M  V30 COUNTS 0 0 0 0 0
M  V30 BEGIN ATOM
M  V30 END ATOM
M  V30 BEGIN BOND
M  V30 END BOND
M  V30 END CTAB
M  END
>  <Compound>


>  <Origin>


>  <Reference>


>  <Actin Disruption Activity (1h Treatment)>


>  <Reversibilty>


>  <Box ID>


>  <Quantity>


>  <Cytotoxicity in L929 mouse fibroblasts [µM]>


>  <Synonyms>


>  <Subclass>


>  <Molecular Formula>


>  <Total Molweight>


>  <Smiles>


>  <Amino Acid>


>  <Cytotoxicity in L929 mouse Fibroblasts [µg/mL]>


>  <Cytotoxicity in KB3.1>


>  <Anti-Biofilm>


$$$$
